# generated using pymatgen
data_GdPt2
_symmetry_space_group_name_H-M   'P 1'
_cell_length_a   5.55455779
_cell_length_b   5.47172685
_cell_length_c   5.51834647
_cell_angle_alpha   60.61334243
_cell_angle_beta   60.75268030
_cell_angle_gamma   60.02960781
_symmetry_Int_Tables_number   1
_chemical_formula_structural   GdPt2
_chemical_formula_sum   'Gd2 Pt4'
_cell_volume   119.83200920
_cell_formula_units_Z   2
loop_
 _symmetry_equiv_pos_site_id
 _symmetry_equiv_pos_as_xyz
  1  'x, y, z'
loop_
 _atom_site_type_symbol
 _atom_site_label
 _atom_site_symmetry_multiplicity
 _atom_site_fract_x
 _atom_site_fract_y
 _atom_site_fract_z
 _atom_site_occupancy
  Gd  Gd0  1  0.125000  0.125000  0.125000  1
  Gd  Gd1  1  0.873062  0.867760  0.871620  1
  Pt  Pt2  1  0.496840  0.492202  0.495693  1
  Pt  Pt3  1  0.494966  0.496033  -0.002800  1
  Pt  Pt4  1  -0.001930  0.491749  0.496000  1
  Pt  Pt5  1  0.491517  -0.005111  0.494137  1
