# generated using pymatgen
data_YbPt
_symmetry_space_group_name_H-M   'P 1'
_cell_length_a   4.44475509
_cell_length_b   5.61894276
_cell_length_c   7.16017046
_cell_angle_alpha   91.07904458
_cell_angle_beta   91.94138181
_cell_angle_gamma   91.48143042
_symmetry_Int_Tables_number   1
_chemical_formula_structural   YbPt
_chemical_formula_sum   'Yb4 Pt4'
_cell_volume   178.62685862
_cell_formula_units_Z   4
loop_
 _symmetry_equiv_pos_site_id
 _symmetry_equiv_pos_as_xyz
  1  'x, y, z'
loop_
 _atom_site_type_symbol
 _atom_site_label
 _atom_site_symmetry_multiplicity
 _atom_site_fract_x
 _atom_site_fract_y
 _atom_site_fract_z
 _atom_site_occupancy
  Yb  Yb0  1  0.250000  0.139101  0.184024  1
  Yb  Yb1  1  0.740328  0.632079  0.311515  1
  Yb  Yb2  1  0.740775  0.851461  0.812164  1
  Yb  Yb3  1  0.244747  0.355666  0.674497  1
  Pt  Pt4  1  0.746866  0.140241  0.451602  1
  Pt  Pt5  1  0.247068  0.843202  0.537537  1
  Pt  Pt6  1  0.241399  0.641450  0.029608  1
  Pt  Pt7  1  0.748542  0.345500  0.957396  1
