# generated using pymatgen
data_YbPt
_symmetry_space_group_name_H-M   'P 1'
_cell_length_a   4.43351102
_cell_length_b   5.60006860
_cell_length_c   7.22901041
_cell_angle_alpha   90.78123269
_cell_angle_beta   90.04159894
_cell_angle_gamma   91.96852044
_symmetry_Int_Tables_number   1
_chemical_formula_structural   YbPt
_chemical_formula_sum   'Yb4 Pt4'
_cell_volume   179.35890014
_cell_formula_units_Z   4
loop_
 _symmetry_equiv_pos_site_id
 _symmetry_equiv_pos_as_xyz
  1  'x, y, z'
loop_
 _atom_site_type_symbol
 _atom_site_label
 _atom_site_symmetry_multiplicity
 _atom_site_fract_x
 _atom_site_fract_y
 _atom_site_fract_z
 _atom_site_occupancy
  Yb  Yb0  1  0.250000  0.139101  0.184024  1
  Yb  Yb1  1  0.745058  0.634086  0.307659  1
  Yb  Yb2  1  0.749140  0.860075  0.808613  1
  Yb  Yb3  1  0.240210  0.356272  0.680634  1
  Pt  Pt4  1  0.747975  0.143556  0.457439  1
  Pt  Pt5  1  0.240770  0.845035  0.535073  1
  Pt  Pt6  1  0.247714  0.645379  0.034313  1
  Pt  Pt7  1  0.745935  0.345333  0.951246  1
