# generated using pymatgen
data_YbNi5
_symmetry_space_group_name_H-M   'P 1'
_cell_length_a   4.85896980
_cell_length_b   4.90728564
_cell_length_c   3.95268858
_cell_angle_alpha   90.77781257
_cell_angle_beta   90.95862161
_cell_angle_gamma   120.78131615
_symmetry_Int_Tables_number   1
_chemical_formula_structural   YbNi5
_chemical_formula_sum   'Yb1 Ni5'
_cell_volume   80.93388153
_cell_formula_units_Z   1
loop_
 _symmetry_equiv_pos_site_id
 _symmetry_equiv_pos_as_xyz
  1  'x, y, z'
loop_
 _atom_site_type_symbol
 _atom_site_label
 _atom_site_symmetry_multiplicity
 _atom_site_fract_x
 _atom_site_fract_y
 _atom_site_fract_z
 _atom_site_occupancy
  Yb  Yb0  1  0.000000  0.000000  0.000000  1
  Ni  Ni1  1  0.324648  0.659009  -0.002064  1
  Ni  Ni2  1  0.658744  0.331624  -0.004626  1
  Ni  Ni3  1  0.497552  -0.001636  0.495841  1
  Ni  Ni4  1  0.491175  0.498670  0.493207  1
  Ni  Ni5  1  -0.008922  0.492316  0.494769  1
