# generated using pymatgen
data_YbHg
_symmetry_space_group_name_H-M   'P 1'
_cell_length_a   3.76702263
_cell_length_b   3.76729902
_cell_length_c   3.78394990
_cell_angle_alpha   90.68361079
_cell_angle_beta   91.30429567
_cell_angle_gamma   91.54049237
_symmetry_Int_Tables_number   1
_chemical_formula_structural   YbHg
_chemical_formula_sum   'Yb1 Hg1'
_cell_volume   53.66238377
_cell_formula_units_Z   1
loop_
 _symmetry_equiv_pos_site_id
 _symmetry_equiv_pos_as_xyz
  1  'x, y, z'
loop_
 _atom_site_type_symbol
 _atom_site_label
 _atom_site_symmetry_multiplicity
 _atom_site_fract_x
 _atom_site_fract_y
 _atom_site_fract_z
 _atom_site_occupancy
  Yb  Yb0  1  0.500000  0.500000  0.500000  1
  Hg  Hg1  1  -0.009274  -0.003175  -0.007791  1
