# generated using pymatgen
data_EuPd2
_symmetry_space_group_name_H-M   'P 1'
_cell_length_a   5.62087949
_cell_length_b   5.57885512
_cell_length_c   5.62895880
_cell_angle_alpha   60.16360166
_cell_angle_beta   60.41419931
_cell_angle_gamma   61.01653450
_symmetry_Int_Tables_number   1
_chemical_formula_structural   EuPd2
_chemical_formula_sum   'Eu2 Pd4'
_cell_volume   126.29792681
_cell_formula_units_Z   2
loop_
 _symmetry_equiv_pos_site_id
 _symmetry_equiv_pos_as_xyz
  1  'x, y, z'
loop_
 _atom_site_type_symbol
 _atom_site_label
 _atom_site_symmetry_multiplicity
 _atom_site_fract_x
 _atom_site_fract_y
 _atom_site_fract_z
 _atom_site_occupancy
  Eu  Eu0  1  0.125000  0.125000  0.125000  1
  Eu  Eu1  1  0.869493  0.869108  0.866282  1
  Pd  Pd2  1  0.499587  -0.006026  0.493501  1
  Pd  Pd3  1  -0.002360  0.492254  0.495671  1
  Pd  Pd4  1  0.498192  0.496042  0.490564  1
  Pd  Pd5  1  0.493759  0.491475  -0.000707  1
