# generated using pymatgen
data_EuNi5
_symmetry_space_group_name_H-M   'P 1'
_cell_length_a   5.01510193
_cell_length_b   4.97294582
_cell_length_c   3.99799965
_cell_angle_alpha   91.94613438
_cell_angle_beta   91.78107840
_cell_angle_gamma   121.98162881
_symmetry_Int_Tables_number   1
_chemical_formula_structural   EuNi5
_chemical_formula_sum   'Eu1 Ni5'
_cell_volume   84.38483823
_cell_formula_units_Z   1
loop_
 _symmetry_equiv_pos_site_id
 _symmetry_equiv_pos_as_xyz
  1  'x, y, z'
loop_
 _atom_site_type_symbol
 _atom_site_label
 _atom_site_symmetry_multiplicity
 _atom_site_fract_x
 _atom_site_fract_y
 _atom_site_fract_z
 _atom_site_occupancy
  Eu  Eu0  1  0.000000  0.000000  0.000000  1
  Ni  Ni1  1  -0.001844  0.499762  0.490692  1
  Ni  Ni2  1  0.325330  0.658086  -0.009358  1
  Ni  Ni3  1  0.661788  0.328229  -0.003421  1
  Ni  Ni4  1  0.499447  -0.004384  0.495583  1
  Ni  Ni5  1  0.491501  0.491716  0.494034  1
