# generated using pymatgen
data_Yb3Ti
_symmetry_space_group_name_H-M   'P 1'
_cell_length_a   5.10567206
_cell_length_b   5.10700128
_cell_length_c   5.13179284
_cell_angle_alpha   90.97072288
_cell_angle_beta   90.29635317
_cell_angle_gamma   90.50618572
_symmetry_Int_Tables_number   1
_chemical_formula_structural   Yb3Ti
_chemical_formula_sum   'Yb3 Ti1'
_cell_volume   133.78350344
_cell_formula_units_Z   1
loop_
 _symmetry_equiv_pos_site_id
 _symmetry_equiv_pos_as_xyz
  1  'x, y, z'
loop_
 _atom_site_type_symbol
 _atom_site_label
 _atom_site_symmetry_multiplicity
 _atom_site_fract_x
 _atom_site_fract_y
 _atom_site_fract_z
 _atom_site_occupancy
  Yb  Yb0  1  0.000000  0.500000  0.500000  1
  Yb  Yb1  1  0.495336  -0.002738  0.497964  1
  Yb  Yb2  1  0.495756  0.499099  -0.000299  1
  Ti  Ti3  1  -0.007059  -0.004229  -0.005918  1
