# generated using pymatgen
data_Yb3Ti
_symmetry_space_group_name_H-M   'P 1'
_cell_length_a   5.12806546
_cell_length_b   5.07448471
_cell_length_c   5.08891202
_cell_angle_alpha   91.84300619
_cell_angle_beta   91.84724394
_cell_angle_gamma   91.47856211
_symmetry_Int_Tables_number   1
_chemical_formula_structural   Yb3Ti
_chemical_formula_sum   'Yb3 Ti1'
_cell_volume   132.24010148
_cell_formula_units_Z   1
loop_
 _symmetry_equiv_pos_site_id
 _symmetry_equiv_pos_as_xyz
  1  'x, y, z'
loop_
 _atom_site_type_symbol
 _atom_site_label
 _atom_site_symmetry_multiplicity
 _atom_site_fract_x
 _atom_site_fract_y
 _atom_site_fract_z
 _atom_site_occupancy
  Yb  Yb0  1  0.000000  0.500000  0.500000  1
  Yb  Yb1  1  0.492508  -0.000887  0.492609  1
  Yb  Yb2  1  0.493149  0.492301  -0.008268  1
  Ti  Ti3  1  -0.003389  -0.007080  -0.005287  1
