# generated using pymatgen
data_Gd2Zn17
_symmetry_space_group_name_H-M   'P 1'
_cell_length_a   6.89777075
_cell_length_b   6.91501927
_cell_length_c   6.87125123
_cell_angle_alpha   83.51000155
_cell_angle_beta   83.29416688
_cell_angle_gamma   83.49437729
_symmetry_Int_Tables_number   1
_chemical_formula_structural   Gd2Zn17
_chemical_formula_sum   'Gd2 Zn17'
_cell_volume   321.74992981
_cell_formula_units_Z   1
loop_
 _symmetry_equiv_pos_site_id
 _symmetry_equiv_pos_as_xyz
  1  'x, y, z'
loop_
 _atom_site_type_symbol
 _atom_site_label
 _atom_site_symmetry_multiplicity
 _atom_site_fract_x
 _atom_site_fract_y
 _atom_site_fract_z
 _atom_site_occupancy
  Gd  Gd0  1  0.664653  0.664653  0.664653  1
  Gd  Gd1  1  0.329153  0.334210  0.334184  1
  Zn  Zn2  1  0.342049  0.349491  0.835901  1
  Zn  Zn3  1  0.290577  0.694989  -0.007349  1
  Zn  Zn4  1  -0.001119  0.288283  0.702372  1
  Zn  Zn5  1  0.342124  0.833621  0.343717  1
  Zn  Zn6  1  0.646678  0.642380  0.157027  1
  Zn  Zn7  1  0.833931  0.348878  0.350874  1
  Zn  Zn8  1  0.699608  -0.001863  0.294645  1
  Zn  Zn9  1  0.160678  0.648929  0.645258  1
  Zn  Zn10  1  0.644230  0.160881  0.644030  1
  Zn  Zn11  1  -0.006264  -0.006364  0.492374  1
  Zn  Zn12  1  0.698548  0.290695  -0.005388  1
  Zn  Zn13  1  0.093960  0.098853  0.095266  1
  Zn  Zn14  1  -0.000911  0.695726  0.293496  1
  Zn  Zn15  1  -0.006691  0.491949  -0.009112  1
  Zn  Zn16  1  0.891575  0.898020  0.898466  1
  Zn  Zn17  1  0.494737  -0.004480  -0.003415  1
  Zn  Zn18  1  0.294565  -0.008673  0.695273  1
