# generated using pymatgen
data_EuNi5
_symmetry_space_group_name_H-M   'P 1'
_cell_length_a   5.02110042
_cell_length_b   4.98886530
_cell_length_c   3.97051158
_cell_angle_alpha   90.67645493
_cell_angle_beta   90.25914006
_cell_angle_gamma   120.70420016
_symmetry_Int_Tables_number   1
_chemical_formula_structural   EuNi5
_chemical_formula_sum   'Eu1 Ni5'
_cell_volume   85.50452820
_cell_formula_units_Z   1
loop_
 _symmetry_equiv_pos_site_id
 _symmetry_equiv_pos_as_xyz
  1  'x, y, z'
loop_
 _atom_site_type_symbol
 _atom_site_label
 _atom_site_symmetry_multiplicity
 _atom_site_fract_x
 _atom_site_fract_y
 _atom_site_fract_z
 _atom_site_occupancy
  Eu  Eu0  1  0.000000  0.000000  0.000000  1
  Ni  Ni1  1  -0.007417  0.490037  0.490230  1
  Ni  Ni2  1  0.326904  0.658077  -0.000385  1
  Ni  Ni3  1  0.665846  0.325798  -0.004286  1
  Ni  Ni4  1  0.497814  -0.008188  0.490269  1
  Ni  Ni5  1  0.499396  0.490084  0.497265  1
