# generated using pymatgen
data_YbPt2
_symmetry_space_group_name_H-M   'P 1'
_cell_length_a   5.48455353
_cell_length_b   5.48564091
_cell_length_c   5.42586771
_cell_angle_alpha   61.22212504
_cell_angle_beta   61.86004281
_cell_angle_gamma   60.09213305
_symmetry_Int_Tables_number   1
_chemical_formula_structural   YbPt2
_chemical_formula_sum   'Yb2 Pt4'
_cell_volume   118.12549846
_cell_formula_units_Z   2
loop_
 _symmetry_equiv_pos_site_id
 _symmetry_equiv_pos_as_xyz
  1  'x, y, z'
loop_
 _atom_site_type_symbol
 _atom_site_label
 _atom_site_symmetry_multiplicity
 _atom_site_fract_x
 _atom_site_fract_y
 _atom_site_fract_z
 _atom_site_occupancy
  Yb  Yb0  1  0.125000  0.125000  0.125000  1
  Yb  Yb1  1  0.868861  0.865651  0.868624  1
  Pt  Pt2  1  -0.009999  0.491434  0.497379  1
  Pt  Pt3  1  0.496250  -0.002900  0.499703  1
  Pt  Pt4  1  0.490233  0.498772  -0.001049  1
  Pt  Pt5  1  0.499041  0.494129  0.494969  1
