# generated using pymatgen
data_GdNi5
_symmetry_space_group_name_H-M   'P 1'
_cell_length_a   4.89928006
_cell_length_b   4.96120600
_cell_length_c   4.00090267
_cell_angle_alpha   90.82131994
_cell_angle_beta   91.56437738
_cell_angle_gamma   120.78137292
_symmetry_Int_Tables_number   1
_chemical_formula_structural   GdNi5
_chemical_formula_sum   'Gd1 Ni5'
_cell_volume   83.47119290
_cell_formula_units_Z   1
loop_
 _symmetry_equiv_pos_site_id
 _symmetry_equiv_pos_as_xyz
  1  'x, y, z'
loop_
 _atom_site_type_symbol
 _atom_site_label
 _atom_site_symmetry_multiplicity
 _atom_site_fract_x
 _atom_site_fract_y
 _atom_site_fract_z
 _atom_site_occupancy
  Gd  Gd0  1  0.000000  0.000000  0.000000  1
  Ni  Ni1  1  -0.000823  0.493897  0.498743  1
  Ni  Ni2  1  0.325742  0.666290  -0.004876  1
  Ni  Ni3  1  0.663449  0.325914  -0.004919  1
  Ni  Ni4  1  0.494069  -0.008100  0.499443  1
  Ni  Ni5  1  0.494982  0.494413  0.492860  1
