# generated using pymatgen
data_Eu4Ir
_symmetry_space_group_name_H-M   'P 1'
_cell_length_a   7.78080150
_cell_length_b   7.77159638
_cell_length_c   7.81722591
_cell_angle_alpha   107.82339777
_cell_angle_beta   108.92055272
_cell_angle_gamma   114.27372278
_symmetry_Int_Tables_number   1
_chemical_formula_structural   Eu4Ir
_chemical_formula_sum   'Eu8 Ir2'
_cell_volume   350.74580071
_cell_formula_units_Z   2
loop_
 _symmetry_equiv_pos_site_id
 _symmetry_equiv_pos_as_xyz
  1  'x, y, z'
loop_
 _atom_site_type_symbol
 _atom_site_label
 _atom_site_symmetry_multiplicity
 _atom_site_fract_x
 _atom_site_fract_y
 _atom_site_fract_z
 _atom_site_occupancy
  Eu  Eu0  1  0.304879  0.249411  0.444533  1
  Eu  Eu1  1  0.689630  0.132775  0.937698  1
  Eu  Eu2  1  0.857081  0.298562  0.547813  1
  Eu  Eu3  1  0.301611  0.853910  0.047945  1
  Eu  Eu4  1  0.129844  0.686802  0.442622  1
  Eu  Eu5  1  0.690183  0.746850  0.549534  1
  Eu  Eu6  1  0.248825  0.296566  0.935343  1
  Eu  Eu7  1  0.745178  0.693078  0.048255  1
  Ir  Ir8  1  0.622791  0.367550  0.245583  1
  Ir  Ir9  1  0.371442  0.617672  0.743081  1
