# generated using pymatgen
data_GdAg2
_symmetry_space_group_name_H-M   'P 1'
_cell_length_a   3.81343812
_cell_length_b   3.83958977
_cell_length_c   5.41183828
_cell_angle_alpha   111.96942313
_cell_angle_beta   110.59240747
_cell_angle_gamma   91.83742451
_symmetry_Int_Tables_number   1
_chemical_formula_structural   GdAg2
_chemical_formula_sum   'Gd1 Ag2'
_cell_volume   67.55763574
_cell_formula_units_Z   1
loop_
 _symmetry_equiv_pos_site_id
 _symmetry_equiv_pos_as_xyz
  1  'x, y, z'
loop_
 _atom_site_type_symbol
 _atom_site_label
 _atom_site_symmetry_multiplicity
 _atom_site_fract_x
 _atom_site_fract_y
 _atom_site_fract_z
 _atom_site_occupancy
  Gd  Gd0  1  0.000000  0.000000  0.000000  1
  Ag  Ag1  1  0.326525  0.324204  0.654144  1
  Ag  Ag2  1  0.662817  0.671327  0.336458  1
