# generated using pymatgen
data_GdAg2
_symmetry_space_group_name_H-M   'P 1'
_cell_length_a   3.77182306
_cell_length_b   3.86059961
_cell_length_c   5.43078611
_cell_angle_alpha   112.27864652
_cell_angle_beta   111.64564296
_cell_angle_gamma   91.84339912
_symmetry_Int_Tables_number   1
_chemical_formula_structural   GdAg2
_chemical_formula_sum   'Gd1 Ag2'
_cell_volume   66.64283794
_cell_formula_units_Z   1
loop_
 _symmetry_equiv_pos_site_id
 _symmetry_equiv_pos_as_xyz
  1  'x, y, z'
loop_
 _atom_site_type_symbol
 _atom_site_label
 _atom_site_symmetry_multiplicity
 _atom_site_fract_x
 _atom_site_fract_y
 _atom_site_fract_z
 _atom_site_occupancy
  Gd  Gd0  1  0.000000  0.000000  0.000000  1
  Ag  Ag1  1  0.322340  0.322265  0.652077  1
  Ag  Ag2  1  0.662510  0.671430  0.341541  1
