# generated using pymatgen
data_Er2Co7
_symmetry_space_group_name_H-M   'P 1'
_cell_length_a   12.38705946
_cell_length_b   12.36473916
_cell_length_c   12.36948565
_cell_angle_alpha   24.13662168
_cell_angle_beta   23.35223742
_cell_angle_gamma   23.06914272
_symmetry_Int_Tables_number   1
_chemical_formula_structural   Er2Co7
_chemical_formula_sum   'Er4 Co14'
_cell_volume   264.64730437
_cell_formula_units_Z   2
loop_
 _symmetry_equiv_pos_site_id
 _symmetry_equiv_pos_as_xyz
  1  'x, y, z'
loop_
 _atom_site_type_symbol
 _atom_site_label
 _atom_site_symmetry_multiplicity
 _atom_site_fract_x
 _atom_site_fract_y
 _atom_site_fract_z
 _atom_site_occupancy
  Er  Er0  1  0.948532  0.948532  0.948532  1
  Er  Er1  1  0.147233  0.138881  0.143877  1
  Er  Er2  1  0.044430  0.048810  0.049567  1
  Er  Er3  1  0.843257  0.849721  0.851540  1
  Co  Co4  1  0.606049  0.607616  0.605476  1
  Co  Co5  1  0.385121  0.387001  0.381070  1
  Co  Co6  1  0.106100  0.607863  0.602066  1
  Co  Co7  1  0.382244  0.385592  0.886913  1
  Co  Co8  1  0.606883  0.608672  0.102005  1
  Co  Co9  1  0.606930  0.101581  0.607872  1
  Co  Co10  1  0.379769  0.883803  0.387435  1
  Co  Co11  1  0.498397  -0.008015  0.495065  1
  Co  Co12  1  0.715318  0.721114  0.712714  1
  Co  Co13  1  0.496427  0.493308  0.499816  1
  Co  Co14  1  0.889701  0.382137  0.386566  1
  Co  Co15  1  -0.007312  0.496677  0.491039  1
  Co  Co16  1  0.269298  0.270539  0.274190  1
  Co  Co17  1  0.492277  0.496460  -0.009610  1
