# generated using pymatgen
data_GdNi5
_symmetry_space_group_name_H-M   'P 1'
_cell_length_a   4.96952197
_cell_length_b   4.96896644
_cell_length_c   4.00730250
_cell_angle_alpha   90.03649950
_cell_angle_beta   91.81230123
_cell_angle_gamma   120.20737013
_symmetry_Int_Tables_number   1
_chemical_formula_structural   GdNi5
_chemical_formula_sum   'Gd1 Ni5'
_cell_volume   85.45847297
_cell_formula_units_Z   1
loop_
 _symmetry_equiv_pos_site_id
 _symmetry_equiv_pos_as_xyz
  1  'x, y, z'
loop_
 _atom_site_type_symbol
 _atom_site_label
 _atom_site_symmetry_multiplicity
 _atom_site_fract_x
 _atom_site_fract_y
 _atom_site_fract_z
 _atom_site_occupancy
  Gd  Gd0  1  0.000000  0.000000  0.000000  1
  Ni  Ni1  1  -0.003067  0.499883  0.493197  1
  Ni  Ni2  1  0.325755  0.666654  -0.008915  1
  Ni  Ni3  1  0.664231  0.324239  -0.001359  1
  Ni  Ni4  1  0.499030  -0.006913  0.495087  1
  Ni  Ni5  1  0.491814  0.495746  0.494518  1
