# generated using pymatgen
data_Yb2Au
_symmetry_space_group_name_H-M   'P 1'
_cell_length_a   4.64961623
_cell_length_b   7.87693376
_cell_length_c   9.50739267
_cell_angle_alpha   91.41752311
_cell_angle_beta   91.26216773
_cell_angle_gamma   91.12755586
_symmetry_Int_Tables_number   1
_chemical_formula_structural   Yb2Au
_chemical_formula_sum   'Yb8 Au4'
_cell_volume   347.94331503
_cell_formula_units_Z   4
loop_
 _symmetry_equiv_pos_site_id
 _symmetry_equiv_pos_as_xyz
  1  'x, y, z'
loop_
 _atom_site_type_symbol
 _atom_site_label
 _atom_site_symmetry_multiplicity
 _atom_site_fract_x
 _atom_site_fract_y
 _atom_site_fract_z
 _atom_site_occupancy
  Yb  Yb0  1  0.750000  0.645652  0.569937  1
  Yb  Yb1  1  0.743998  0.520014  0.164426  1
  Yb  Yb2  1  0.245714  0.853151  0.065891  1
  Yb  Yb3  1  0.247595  0.972475  0.666523  1
  Yb  Yb4  1  0.240982  0.473817  0.824737  1
  Yb  Yb5  1  0.749266  0.143170  0.921807  1
  Yb  Yb6  1  0.240308  0.351687  0.420897  1
  Yb  Yb7  1  0.745785  0.019838  0.328506  1
  Au  Au8  1  0.748971  0.747801  0.875581  1
  Au  Au9  1  0.740869  0.244480  0.610536  1
  Au  Au10  1  0.244695  0.241323  0.115939  1
  Au  Au11  1  0.244409  0.740712  0.377928  1
