# generated using pymatgen
data_YbAg2
_symmetry_space_group_name_H-M   'P 1'
_cell_length_a   4.80202876
_cell_length_b   6.00683803
_cell_length_c   5.99353771
_cell_angle_alpha   75.60840455
_cell_angle_beta   66.70804916
_cell_angle_gamma   68.15538193
_symmetry_Int_Tables_number   1
_chemical_formula_structural   YbAg2
_chemical_formula_sum   'Yb2 Ag4'
_cell_volume   146.34540611
_cell_formula_units_Z   2
loop_
 _symmetry_equiv_pos_site_id
 _symmetry_equiv_pos_as_xyz
  1  'x, y, z'
loop_
 _atom_site_type_symbol
 _atom_site_label
 _atom_site_symmetry_multiplicity
 _atom_site_fract_x
 _atom_site_fract_y
 _atom_site_fract_z
 _atom_site_occupancy
  Yb  Yb0  1  0.543015  0.706985  0.206985  1
  Yb  Yb1  1  0.450185  0.289249  0.785298  1
  Ag  Ag2  1  0.833965  0.105973  0.203413  1
  Ag  Ag3  1  0.159542  0.289240  0.375530  1
  Ag  Ag4  1  0.159589  0.882320  0.783003  1
  Ag  Ag5  1  0.833808  0.703865  0.607140  1
