# generated using pymatgen
data_YbFe2
_symmetry_space_group_name_H-M   'P 1'
_cell_length_a   5.13318042
_cell_length_b   5.08174065
_cell_length_c   5.11587270
_cell_angle_alpha   60.20024604
_cell_angle_beta   60.32074273
_cell_angle_gamma   60.28559417
_symmetry_Int_Tables_number   1
_chemical_formula_structural   YbFe2
_chemical_formula_sum   'Yb2 Fe4'
_cell_volume   94.93745112
_cell_formula_units_Z   2
loop_
 _symmetry_equiv_pos_site_id
 _symmetry_equiv_pos_as_xyz
  1  'x, y, z'
loop_
 _atom_site_type_symbol
 _atom_site_label
 _atom_site_symmetry_multiplicity
 _atom_site_fract_x
 _atom_site_fract_y
 _atom_site_fract_z
 _atom_site_occupancy
  Yb  Yb0  1  0.875000  0.875000  0.875000  1
  Yb  Yb1  1  0.117826  0.119235  0.122933  1
  Fe  Fe2  1  0.499101  0.491930  0.497589  1
  Fe  Fe3  1  0.491156  0.498422  -0.007268  1
  Fe  Fe4  1  -0.000726  0.495248  0.492450  1
  Fe  Fe5  1  0.492820  -0.002353  0.495011  1
