# generated using pymatgen
data_GdFe2
_symmetry_space_group_name_H-M   'P 1'
_cell_length_a   5.24884662
_cell_length_b   5.17901110
_cell_length_c   5.22193412
_cell_angle_alpha   61.71517794
_cell_angle_beta   60.76582686
_cell_angle_gamma   61.06272549
_symmetry_Int_Tables_number   1
_chemical_formula_structural   GdFe2
_chemical_formula_sum   'Gd2 Fe4'
_cell_volume   103.02844747
_cell_formula_units_Z   2
loop_
 _symmetry_equiv_pos_site_id
 _symmetry_equiv_pos_as_xyz
  1  'x, y, z'
loop_
 _atom_site_type_symbol
 _atom_site_label
 _atom_site_symmetry_multiplicity
 _atom_site_fract_x
 _atom_site_fract_y
 _atom_site_fract_z
 _atom_site_occupancy
  Gd  Gd0  1  0.875000  0.875000  0.875000  1
  Gd  Gd1  1  0.124388  0.122292  0.124343  1
  Fe  Fe2  1  0.497663  0.496787  0.498120  1
  Fe  Fe3  1  0.491576  0.494403  -0.003857  1
  Fe  Fe4  1  -0.000504  0.495630  0.492769  1
  Fe  Fe5  1  0.497185  -0.005936  0.496834  1
