# generated using pymatgen
data_GdFe2
_symmetry_space_group_name_H-M   'P 1'
_cell_length_a   5.24126944
_cell_length_b   5.20679276
_cell_length_c   5.17742150
_cell_angle_alpha   61.06165717
_cell_angle_beta   60.39308796
_cell_angle_gamma   61.92243018
_symmetry_Int_Tables_number   1
_chemical_formula_structural   GdFe2
_chemical_formula_sum   'Gd2 Fe4'
_cell_volume   102.40483130
_cell_formula_units_Z   2
loop_
 _symmetry_equiv_pos_site_id
 _symmetry_equiv_pos_as_xyz
  1  'x, y, z'
loop_
 _atom_site_type_symbol
 _atom_site_label
 _atom_site_symmetry_multiplicity
 _atom_site_fract_x
 _atom_site_fract_y
 _atom_site_fract_z
 _atom_site_occupancy
  Gd  Gd0  1  0.875000  0.875000  0.875000  1
  Gd  Gd1  1  0.117967  0.116991  0.122892  1
  Fe  Fe2  1  0.497866  0.494032  0.494203  1
  Fe  Fe3  1  0.496290  0.490588  -0.008435  1
  Fe  Fe4  1  -0.008087  0.490694  0.491570  1
  Fe  Fe5  1  0.496536  -0.009062  0.495535  1
