# generated using pymatgen
data_Yb3V
_symmetry_space_group_name_H-M   'P 1'
_cell_length_a   5.01630628
_cell_length_b   5.02327090
_cell_length_c   5.00805366
_cell_angle_alpha   91.48683694
_cell_angle_beta   91.31849955
_cell_angle_gamma   90.21631943
_symmetry_Int_Tables_number   1
_chemical_formula_structural   Yb3V
_chemical_formula_sum   'Yb3 V1'
_cell_volume   126.11716878
_cell_formula_units_Z   1
loop_
 _symmetry_equiv_pos_site_id
 _symmetry_equiv_pos_as_xyz
  1  'x, y, z'
loop_
 _atom_site_type_symbol
 _atom_site_label
 _atom_site_symmetry_multiplicity
 _atom_site_fract_x
 _atom_site_fract_y
 _atom_site_fract_z
 _atom_site_occupancy
  Yb  Yb0  1  0.000000  0.500000  0.500000  1
  Yb  Yb1  1  0.497159  -0.005079  0.493648  1
  Yb  Yb2  1  0.497623  0.497601  -0.005169  1
  V  V3  1  -0.002154  -0.008376  -0.005605  1
