# generated using pymatgen
data_Yb3V
_symmetry_space_group_name_H-M   'P 1'
_cell_length_a   5.08877525
_cell_length_b   5.05093331
_cell_length_c   5.06479080
_cell_angle_alpha   91.24054280
_cell_angle_beta   90.35604959
_cell_angle_gamma   90.96977626
_symmetry_Int_Tables_number   1
_chemical_formula_structural   Yb3V
_chemical_formula_sum   'Yb3 V1'
_cell_volume   130.12866959
_cell_formula_units_Z   1
loop_
 _symmetry_equiv_pos_site_id
 _symmetry_equiv_pos_as_xyz
  1  'x, y, z'
loop_
 _atom_site_type_symbol
 _atom_site_label
 _atom_site_symmetry_multiplicity
 _atom_site_fract_x
 _atom_site_fract_y
 _atom_site_fract_z
 _atom_site_occupancy
  Yb  Yb0  1  0.000000  0.500000  0.500000  1
  Yb  Yb1  1  0.497985  -0.005974  0.495505  1
  Yb  Yb2  1  0.497536  0.493075  -0.008536  1
  V  V3  1  -0.007156  -0.004616  -0.006036  1
