# generated using pymatgen
data_YbZn2
_symmetry_space_group_name_H-M   'P 1'
_cell_length_a   4.63960461
_cell_length_b   5.69419088
_cell_length_c   5.73047091
_cell_angle_alpha   79.06841166
_cell_angle_beta   67.94505044
_cell_angle_gamma   67.52823184
_symmetry_Int_Tables_number   1
_chemical_formula_structural   YbZn2
_chemical_formula_sum   'Yb2 Zn4'
_cell_volume   129.47150307
_cell_formula_units_Z   2
loop_
 _symmetry_equiv_pos_site_id
 _symmetry_equiv_pos_as_xyz
  1  'x, y, z'
loop_
 _atom_site_type_symbol
 _atom_site_label
 _atom_site_symmetry_multiplicity
 _atom_site_fract_x
 _atom_site_fract_y
 _atom_site_fract_z
 _atom_site_occupancy
  Yb  Yb0  1  0.549456  0.700544  0.200544  1
  Yb  Yb1  1  0.443647  0.293653  0.797853  1
  Zn  Zn2  1  0.829620  0.714383  0.595095  1
  Zn  Zn3  1  0.163644  0.272410  0.392158  1
  Zn  Zn4  1  0.827261  0.102858  0.222153  1
  Zn  Zn5  1  0.163128  0.886994  0.766282  1
