# generated using pymatgen
data_EuAg2
_symmetry_space_group_name_H-M   'P 1'
_cell_length_a   4.85216456
_cell_length_b   6.18315791
_cell_length_c   6.16867310
_cell_angle_alpha   77.27482158
_cell_angle_beta   68.53722103
_cell_angle_gamma   67.48447407
_symmetry_Int_Tables_number   1
_chemical_formula_structural   EuAg2
_chemical_formula_sum   'Eu2 Ag4'
_cell_volume   158.41526553
_cell_formula_units_Z   2
loop_
 _symmetry_equiv_pos_site_id
 _symmetry_equiv_pos_as_xyz
  1  'x, y, z'
loop_
 _atom_site_type_symbol
 _atom_site_label
 _atom_site_symmetry_multiplicity
 _atom_site_fract_x
 _atom_site_fract_y
 _atom_site_fract_z
 _atom_site_occupancy
  Eu  Eu0  1  0.456388  0.293612  0.793612  1
  Eu  Eu1  1  0.537655  0.702913  0.204771  1
  Ag  Ag2  1  0.827816  0.105809  0.214616  1
  Ag  Ag3  1  0.158563  0.882213  0.783590  1
  Ag  Ag4  1  0.156607  0.283053  0.385615  1
  Ag  Ag5  1  0.829361  0.705402  0.602527  1
