# generated using pymatgen
data_EuAg2
_symmetry_space_group_name_H-M   'P 1'
_cell_length_a   4.87593944
_cell_length_b   6.17838880
_cell_length_c   6.15711488
_cell_angle_alpha   77.30342839
_cell_angle_beta   67.12677128
_cell_angle_gamma   67.07323068
_symmetry_Int_Tables_number   1
_chemical_formula_structural   EuAg2
_chemical_formula_sum   'Eu2 Ag4'
_cell_volume   156.88830127
_cell_formula_units_Z   2
loop_
 _symmetry_equiv_pos_site_id
 _symmetry_equiv_pos_as_xyz
  1  'x, y, z'
loop_
 _atom_site_type_symbol
 _atom_site_label
 _atom_site_symmetry_multiplicity
 _atom_site_fract_x
 _atom_site_fract_y
 _atom_site_fract_z
 _atom_site_occupancy
  Eu  Eu0  1  0.456388  0.293612  0.793612  1
  Eu  Eu1  1  0.543097  0.706298  0.199733  1
  Ag  Ag2  1  0.835957  0.110567  0.207298  1
  Ag  Ag3  1  0.154474  0.886656  0.779064  1
  Ag  Ag4  1  0.162762  0.284040  0.378223  1
  Ag  Ag5  1  0.826832  0.710673  0.608705  1
