# generated using pymatgen
data_EuZn5
_symmetry_space_group_name_H-M   'P 1'
_cell_length_a   5.47184284
_cell_length_b   5.53621266
_cell_length_c   4.27984790
_cell_angle_alpha   90.40065430
_cell_angle_beta   90.97464939
_cell_angle_gamma   121.69198723
_symmetry_Int_Tables_number   1
_chemical_formula_structural   EuZn5
_chemical_formula_sum   'Eu1 Zn5'
_cell_volume   110.28244787
_cell_formula_units_Z   1
loop_
 _symmetry_equiv_pos_site_id
 _symmetry_equiv_pos_as_xyz
  1  'x, y, z'
loop_
 _atom_site_type_symbol
 _atom_site_label
 _atom_site_symmetry_multiplicity
 _atom_site_fract_x
 _atom_site_fract_y
 _atom_site_fract_z
 _atom_site_occupancy
  Eu  Eu0  1  0.000000  0.000000  0.000000  1
  Zn  Zn1  1  -0.009284  0.499260  0.496902  1
  Zn  Zn2  1  0.325769  0.660288  -0.005471  1
  Zn  Zn3  1  0.658401  0.331020  -0.005092  1
  Zn  Zn4  1  0.496975  -0.006279  0.493719  1
  Zn  Zn5  1  0.495106  0.496731  0.497519  1
