# generated using pymatgen
data_GdMn3
_symmetry_space_group_name_H-M   'P 1'
_cell_length_a   6.02979988
_cell_length_b   5.93228303
_cell_length_c   4.42569118
_cell_angle_alpha   91.07652958
_cell_angle_beta   90.57512112
_cell_angle_gamma   121.03636260
_symmetry_Int_Tables_number   1
_chemical_formula_structural   GdMn3
_chemical_formula_sum   'Gd2 Mn6'
_cell_volume   135.58571331
_cell_formula_units_Z   2
loop_
 _symmetry_equiv_pos_site_id
 _symmetry_equiv_pos_as_xyz
  1  'x, y, z'
loop_
 _atom_site_type_symbol
 _atom_site_label
 _atom_site_symmetry_multiplicity
 _atom_site_fract_x
 _atom_site_fract_y
 _atom_site_fract_z
 _atom_site_occupancy
  Gd  Gd0  1  0.333333  0.666667  0.750000  1
  Gd  Gd1  1  0.660812  0.323409  0.244458  1
  Mn  Mn2  1  0.129867  0.270717  0.241529  1
  Mn  Mn3  1  0.720906  0.861129  0.241396  1
  Mn  Mn4  1  0.130301  0.856440  0.243459  1
  Mn  Mn5  1  0.861566  0.716005  0.747140  1
  Mn  Mn6  1  0.273136  0.131184  0.740997  1
  Mn  Mn7  1  0.853333  0.136567  0.747143  1
