# generated using pymatgen
data_GdMn3
_symmetry_space_group_name_H-M   'P 1'
_cell_length_a   5.98195109
_cell_length_b   5.97832554
_cell_length_c   4.37464626
_cell_angle_alpha   90.56069697
_cell_angle_beta   90.27654903
_cell_angle_gamma   120.81651622
_symmetry_Int_Tables_number   1
_chemical_formula_structural   GdMn3
_chemical_formula_sum   'Gd2 Mn6'
_cell_volume   134.34276639
_cell_formula_units_Z   2
loop_
 _symmetry_equiv_pos_site_id
 _symmetry_equiv_pos_as_xyz
  1  'x, y, z'
loop_
 _atom_site_type_symbol
 _atom_site_label
 _atom_site_symmetry_multiplicity
 _atom_site_fract_x
 _atom_site_fract_y
 _atom_site_fract_z
 _atom_site_occupancy
  Gd  Gd0  1  0.333333  0.666667  0.750000  1
  Gd  Gd1  1  0.658241  0.324289  0.247546  1
  Mn  Mn2  1  0.137534  0.272521  0.248982  1
  Mn  Mn3  1  0.716736  0.860445  0.242950  1
  Mn  Mn4  1  0.129754  0.861364  0.241080  1
  Mn  Mn5  1  0.854311  0.722600  0.742467  1
  Mn  Mn6  1  0.274944  0.137421  0.744808  1
  Mn  Mn7  1  0.858850  0.136112  0.748970  1
