# generated using pymatgen
data_YbIr2
_symmetry_space_group_name_H-M   'P 1'
_cell_length_a   5.35360673
_cell_length_b   5.42349003
_cell_length_c   5.37758349
_cell_angle_alpha   61.53845883
_cell_angle_beta   60.15177473
_cell_angle_gamma   61.20121548
_symmetry_Int_Tables_number   1
_chemical_formula_structural   YbIr2
_chemical_formula_sum   'Yb2 Ir4'
_cell_volume   112.77002545
_cell_formula_units_Z   2
loop_
 _symmetry_equiv_pos_site_id
 _symmetry_equiv_pos_as_xyz
  1  'x, y, z'
loop_
 _atom_site_type_symbol
 _atom_site_label
 _atom_site_symmetry_multiplicity
 _atom_site_fract_x
 _atom_site_fract_y
 _atom_site_fract_z
 _atom_site_occupancy
  Yb  Yb0  1  0.125000  0.125000  0.125000  1
  Yb  Yb1  1  0.873755  0.871214  0.867606  1
  Ir  Ir2  1  -0.009025  0.494515  0.491821  1
  Ir  Ir3  1  0.495773  -0.009982  0.496063  1
  Ir  Ir4  1  0.498534  0.498890  -0.004136  1
  Ir  Ir5  1  0.495985  0.490837  0.494460  1
