# generated using pymatgen
data_YbRh2
_symmetry_space_group_name_H-M   'P 1'
_cell_length_a   5.31901876
_cell_length_b   5.34693131
_cell_length_c   5.30716303
_cell_angle_alpha   60.46632152
_cell_angle_beta   61.96654969
_cell_angle_gamma   60.32044473
_symmetry_Int_Tables_number   1
_chemical_formula_structural   YbRh2
_chemical_formula_sum   'Yb2 Rh4'
_cell_volume   108.88272123
_cell_formula_units_Z   2
loop_
 _symmetry_equiv_pos_site_id
 _symmetry_equiv_pos_as_xyz
  1  'x, y, z'
loop_
 _atom_site_type_symbol
 _atom_site_label
 _atom_site_symmetry_multiplicity
 _atom_site_fract_x
 _atom_site_fract_y
 _atom_site_fract_z
 _atom_site_occupancy
  Yb  Yb0  1  0.875000  0.875000  0.875000  1
  Yb  Yb1  1  0.122824  0.122612  0.116502  1
  Rh  Rh2  1  0.493121  0.493461  0.495352  1
  Rh  Rh3  1  0.498633  0.490672  -0.005638  1
  Rh  Rh4  1  -0.002629  0.495830  0.496778  1
  Rh  Rh5  1  0.492272  -0.003242  0.494762  1
