# generated using pymatgen
data_Gd3Pd2
_symmetry_space_group_name_H-M   'P 1'
_cell_length_a   4.04712795
_cell_length_b   7.99242824
_cell_length_c   7.91137343
_cell_angle_alpha   91.85503719
_cell_angle_beta   91.78691557
_cell_angle_gamma   90.46020213
_symmetry_Int_Tables_number   1
_chemical_formula_structural   Gd3Pd2
_chemical_formula_sum   'Gd6 Pd4'
_cell_volume   255.63532694
_cell_formula_units_Z   2
loop_
 _symmetry_equiv_pos_site_id
 _symmetry_equiv_pos_as_xyz
  1  'x, y, z'
loop_
 _atom_site_type_symbol
 _atom_site_label
 _atom_site_symmetry_multiplicity
 _atom_site_fract_x
 _atom_site_fract_y
 _atom_site_fract_z
 _atom_site_occupancy
  Gd  Gd0  1  0.500000  0.665132  0.834868  1
  Gd  Gd1  1  0.491732  0.831880  0.333183  1
  Gd  Gd2  1  0.490206  0.329661  0.160265  1
  Gd  Gd3  1  0.494525  0.160582  0.659569  1
  Gd  Gd4  1  -0.006610  0.498206  0.498474  1
  Gd  Gd5  1  -0.008614  -0.006106  -0.000452  1
  Pd  Pd6  1  -0.001129  0.623566  0.129173  1
  Pd  Pd7  1  -0.000078  0.859837  0.626261  1
  Pd  Pd8  1  -0.000505  0.129636  0.366941  1
  Pd  Pd9  1  -0.001412  0.365263  0.865830  1
