# generated using pymatgen
data_YbNi2
_symmetry_space_group_name_H-M   'P 1'
_cell_length_a   5.01007127
_cell_length_b   4.99506659
_cell_length_c   5.01300354
_cell_angle_alpha   61.40467152
_cell_angle_beta   61.30691113
_cell_angle_gamma   60.18619894
_symmetry_Int_Tables_number   1
_chemical_formula_structural   YbNi2
_chemical_formula_sum   'Yb2 Ni4'
_cell_volume   90.61522169
_cell_formula_units_Z   2
loop_
 _symmetry_equiv_pos_site_id
 _symmetry_equiv_pos_as_xyz
  1  'x, y, z'
loop_
 _atom_site_type_symbol
 _atom_site_label
 _atom_site_symmetry_multiplicity
 _atom_site_fract_x
 _atom_site_fract_y
 _atom_site_fract_z
 _atom_site_occupancy
  Yb  Yb0  1  0.875000  0.875000  0.875000  1
  Yb  Yb1  1  0.124964  0.115611  0.119434  1
  Ni  Ni2  1  0.498887  0.492681  0.499194  1
  Ni  Ni3  1  0.497509  0.493579  -0.006308  1
  Ni  Ni4  1  -0.006445  0.493223  0.494099  1
  Ni  Ni5  1  0.490291  -0.008380  0.499998  1
