# generated using pymatgen
data_Yb3Y
_symmetry_space_group_name_H-M   'P 1'
_cell_length_a   7.54133476
_cell_length_b   7.54635623
_cell_length_c   6.17109225
_cell_angle_alpha   90.10839489
_cell_angle_beta   90.07556615
_cell_angle_gamma   120.79599824
_symmetry_Int_Tables_number   1
_chemical_formula_structural   Yb3Y
_chemical_formula_sum   'Yb6 Y2'
_cell_volume   301.67284006
_cell_formula_units_Z   2
loop_
 _symmetry_equiv_pos_site_id
 _symmetry_equiv_pos_as_xyz
  1  'x, y, z'
loop_
 _atom_site_type_symbol
 _atom_site_label
 _atom_site_symmetry_multiplicity
 _atom_site_fract_x
 _atom_site_fract_y
 _atom_site_fract_z
 _atom_site_occupancy
  Yb  Yb0  1  0.170475  0.340950  0.249999  1
  Yb  Yb1  1  0.652642  0.822859  0.240942  1
  Yb  Yb2  1  0.162602  0.829059  0.249914  1
  Yb  Yb3  1  0.827477  0.655510  0.740065  1
  Yb  Yb4  1  0.334736  0.163834  0.747227  1
  Yb  Yb5  1  0.827194  0.164433  0.743838  1
  Y  Y6  1  0.323657  0.660666  0.743540  1
  Y  Y7  1  0.657500  0.329000  0.247162  1
