# generated using pymatgen
data_Yb3Y
_symmetry_space_group_name_H-M   'P 1'
_cell_length_a   7.58286008
_cell_length_b   7.54345982
_cell_length_c   6.16284882
_cell_angle_alpha   90.70071388
_cell_angle_beta   90.41097184
_cell_angle_gamma   121.18716885
_symmetry_Int_Tables_number   1
_chemical_formula_structural   Yb3Y
_chemical_formula_sum   'Yb6 Y2'
_cell_volume   301.51471430
_cell_formula_units_Z   2
loop_
 _symmetry_equiv_pos_site_id
 _symmetry_equiv_pos_as_xyz
  1  'x, y, z'
loop_
 _atom_site_type_symbol
 _atom_site_label
 _atom_site_symmetry_multiplicity
 _atom_site_fract_x
 _atom_site_fract_y
 _atom_site_fract_z
 _atom_site_occupancy
  Yb  Yb0  1  0.170475  0.340950  0.249999  1
  Yb  Yb1  1  0.658116  0.828595  0.240118  1
  Yb  Yb2  1  0.169181  0.819695  0.242350  1
  Yb  Yb3  1  0.822006  0.657998  0.746216  1
  Yb  Yb4  1  0.334774  0.166575  0.743267  1
  Yb  Yb5  1  0.824467  0.160704  0.744618  1
  Y  Y6  1  0.328379  0.662616  0.744950  1
  Y  Y7  1  0.661224  0.326999  0.249374  1
