# generated using pymatgen
data_Yb2Au
_symmetry_space_group_name_H-M   'P 1'
_cell_length_a   4.60084098
_cell_length_b   7.87632793
_cell_length_c   9.44844168
_cell_angle_alpha   90.58609891
_cell_angle_beta   90.78797578
_cell_angle_gamma   90.70813321
_symmetry_Int_Tables_number   1
_chemical_formula_structural   Yb2Au
_chemical_formula_sum   'Yb8 Au4'
_cell_volume   342.31305660
_cell_formula_units_Z   4
loop_
 _symmetry_equiv_pos_site_id
 _symmetry_equiv_pos_as_xyz
  1  'x, y, z'
loop_
 _atom_site_type_symbol
 _atom_site_label
 _atom_site_symmetry_multiplicity
 _atom_site_fract_x
 _atom_site_fract_y
 _atom_site_fract_z
 _atom_site_occupancy
  Yb  Yb0  1  0.750000  0.645652  0.569937  1
  Yb  Yb1  1  0.748696  0.516114  0.161684  1
  Yb  Yb2  1  0.245702  0.854224  0.061907  1
  Yb  Yb3  1  0.246345  0.968464  0.662321  1
  Yb  Yb4  1  0.245698  0.477194  0.829109  1
  Yb  Yb5  1  0.748005  0.145482  0.928196  1
  Yb  Yb6  1  0.241689  0.352835  0.429227  1
  Yb  Yb7  1  0.745948  0.018622  0.325211  1
  Au  Au8  1  0.745061  0.750896  0.881725  1
  Au  Au9  1  0.747380  0.250065  0.613722  1
  Au  Au10  1  0.249910  0.240515  0.111979  1
  Au  Au11  1  0.249450  0.741923  0.376569  1
