# generated using pymatgen
data_Eu3Ag2
_symmetry_space_group_name_H-M   'P 1'
_cell_length_a   4.55817952
_cell_length_b   8.62254844
_cell_length_c   8.62863705
_cell_angle_alpha   91.01234574
_cell_angle_beta   91.68462772
_cell_angle_gamma   90.79849366
_symmetry_Int_Tables_number   1
_chemical_formula_structural   Eu3Ag2
_chemical_formula_sum   'Eu6 Ag4'
_cell_volume   338.89744469
_cell_formula_units_Z   2
loop_
 _symmetry_equiv_pos_site_id
 _symmetry_equiv_pos_as_xyz
  1  'x, y, z'
loop_
 _atom_site_type_symbol
 _atom_site_label
 _atom_site_symmetry_multiplicity
 _atom_site_fract_x
 _atom_site_fract_y
 _atom_site_fract_z
 _atom_site_occupancy
  Eu  Eu0  1  0.500000  0.169285  0.669285  1
  Eu  Eu1  1  0.498520  0.668121  0.829489  1
  Eu  Eu2  1  0.494766  0.325334  0.167383  1
  Eu  Eu3  1  -0.009303  -0.005651  -0.000306  1
  Eu  Eu4  1  0.492061  0.821496  0.325009  1
  Eu  Eu5  1  -0.002252  0.492387  0.497811  1
  Ag  Ag6  1  -0.006530  0.370779  0.874627  1
  Ag  Ag7  1  -0.003487  0.121693  0.371534  1
  Ag  Ag8  1  -0.005806  0.615908  0.116420  1
  Ag  Ag9  1  -0.006049  0.873493  0.615441  1
