# generated using pymatgen
data_Eu3Ag2
_symmetry_space_group_name_H-M   'P 1'
_cell_length_a   4.60143981
_cell_length_b   8.59496953
_cell_length_c   8.59556007
_cell_angle_alpha   90.59132702
_cell_angle_beta   91.48432929
_cell_angle_gamma   90.16250496
_symmetry_Int_Tables_number   1
_chemical_formula_structural   Eu3Ag2
_chemical_formula_sum   'Eu6 Ag4'
_cell_volume   339.81401780
_cell_formula_units_Z   2
loop_
 _symmetry_equiv_pos_site_id
 _symmetry_equiv_pos_as_xyz
  1  'x, y, z'
loop_
 _atom_site_type_symbol
 _atom_site_label
 _atom_site_symmetry_multiplicity
 _atom_site_fract_x
 _atom_site_fract_y
 _atom_site_fract_z
 _atom_site_occupancy
  Eu  Eu0  1  0.500000  0.169285  0.669285  1
  Eu  Eu1  1  0.494887  0.664297  0.825620  1
  Eu  Eu2  1  0.495292  0.328350  0.161041  1
  Eu  Eu3  1  -0.003437  -0.003551  -0.007203  1
  Eu  Eu4  1  0.496604  0.824090  0.321927  1
  Eu  Eu5  1  -0.003328  0.499250  0.492286  1
  Ag  Ag6  1  -0.009999  0.367617  0.867504  1
  Ag  Ag7  1  -0.007140  0.121669  0.376695  1
  Ag  Ag8  1  -0.002082  0.614021  0.118343  1
  Ag  Ag9  1  -0.004026  0.868809  0.616079  1
