# generated using pymatgen
data_CeNi3
_symmetry_space_group_name_H-M   'P 1'
_cell_length_a   5.02655069
_cell_length_b   4.99887140
_cell_length_c   16.54645696
_cell_angle_alpha   90.19712160
_cell_angle_beta   90.69688952
_cell_angle_gamma   121.22115638
_symmetry_Int_Tables_number   1
_chemical_formula_structural   CeNi3
_chemical_formula_sum   'Ce6 Ni18'
_cell_volume   355.50086127
_cell_formula_units_Z   6
loop_
 _symmetry_equiv_pos_site_id
 _symmetry_equiv_pos_as_xyz
  1  'x, y, z'
loop_
 _atom_site_type_symbol
 _atom_site_label
 _atom_site_symmetry_multiplicity
 _atom_site_fract_x
 _atom_site_fract_y
 _atom_site_fract_z
 _atom_site_occupancy
  Ce  Ce0  1  0.333333  0.666667  0.458398  1
  Ce  Ce1  1  0.666287  0.331039  0.953301  1
  Ce  Ce2  1  0.659387  0.329153  0.532894  1
  Ce  Ce3  1  0.326393  0.658637  0.033935  1
  Ce  Ce4  1  0.325883  0.663929  0.246664  1
  Ce  Ce5  1  0.662291  0.329151  0.746859  1
  Ni  Ni6  1  0.825841  0.159399  0.367702  1
  Ni  Ni7  1  0.157716  0.826863  0.873066  1
  Ni  Ni8  1  0.832724  0.658721  0.122763  1
  Ni  Ni9  1  0.164665  0.331221  0.623555  1
  Ni  Ni10  1  -0.003789  -0.006483  0.494566  1
  Ni  Ni11  1  0.664395  0.828108  0.870355  1
  Ni  Ni12  1  0.823982  0.665748  0.372231  1
  Ni  Ni13  1  0.162468  0.328316  0.866843  1
  Ni  Ni14  1  0.324768  0.164785  0.124658  1
  Ni  Ni15  1  0.658557  0.326922  0.241572  1
  Ni  Ni16  1  0.828770  0.162150  0.121755  1
  Ni  Ni17  1  -0.001770  -0.005324  0.740465  1
  Ni  Ni18  1  0.666999  0.831703  0.626370  1
  Ni  Ni19  1  0.330440  0.162612  0.369773  1
  Ni  Ni20  1  -0.002776  -0.006113  -0.001622  1
  Ni  Ni21  1  0.165809  0.831078  0.620475  1
  Ni  Ni22  1  0.323467  0.664826  0.748247  1
  Ni  Ni23  1  -0.004816  -0.004387  0.242697  1
