# generated using pymatgen
data_CeNi3
_symmetry_space_group_name_H-M   'P 1'
_cell_length_a   5.00281505
_cell_length_b   5.02925379
_cell_length_c   16.56522061
_cell_angle_alpha   91.84246539
_cell_angle_beta   90.98895931
_cell_angle_gamma   120.76475120
_symmetry_Int_Tables_number   1
_chemical_formula_structural   CeNi3
_chemical_formula_sum   'Ce6 Ni18'
_cell_volume   357.67449012
_cell_formula_units_Z   6
loop_
 _symmetry_equiv_pos_site_id
 _symmetry_equiv_pos_as_xyz
  1  'x, y, z'
loop_
 _atom_site_type_symbol
 _atom_site_label
 _atom_site_symmetry_multiplicity
 _atom_site_fract_x
 _atom_site_fract_y
 _atom_site_fract_z
 _atom_site_occupancy
  Ce  Ce0  1  0.333333  0.666667  0.458398  1
  Ce  Ce1  1  0.664700  0.329839  0.955480  1
  Ce  Ce2  1  0.656820  0.323933  0.534018  1
  Ce  Ce3  1  0.328722  0.660297  0.040032  1
  Ce  Ce4  1  0.330841  0.659016  0.249521  1
  Ce  Ce5  1  0.663100  0.324315  0.744163  1
  Ni  Ni6  1  0.829756  0.163532  0.367774  1
  Ni  Ni7  1  0.162996  0.824172  0.872504  1
  Ni  Ni8  1  0.831090  0.659023  0.119884  1
  Ni  Ni9  1  0.157395  0.324482  0.626465  1
  Ni  Ni10  1  -0.005448  -0.009655  0.495257  1
  Ni  Ni11  1  0.667530  0.826460  0.866260  1
  Ni  Ni12  1  0.828121  0.659635  0.364071  1
  Ni  Ni13  1  0.162100  0.324108  0.872772  1
  Ni  Ni14  1  0.331176  0.157258  0.122204  1
  Ni  Ni15  1  0.661163  0.330931  0.249022  1
  Ni  Ni16  1  0.824051  0.165030  0.124366  1
  Ni  Ni17  1  -0.009297  -0.004999  0.746503  1
  Ni  Ni18  1  0.658520  0.832253  0.625724  1
  Ni  Ni19  1  0.322966  0.162008  0.363598  1
  Ni  Ni20  1  -0.007848  -0.001481  -0.007455  1
  Ni  Ni21  1  0.160117  0.830022  0.622741  1
  Ni  Ni22  1  0.327616  0.658977  0.746952  1
  Ni  Ni23  1  -0.001085  -0.006795  0.248822  1
