# generated using pymatgen
data_Gd2Fe17
_symmetry_space_group_name_H-M   'P 1'
_cell_length_a   6.48134063
_cell_length_b   6.48609624
_cell_length_c   6.51917671
_cell_angle_alpha   84.64630509
_cell_angle_beta   84.72484233
_cell_angle_gamma   83.34964604
_symmetry_Int_Tables_number   1
_chemical_formula_structural   Gd2Fe17
_chemical_formula_sum   'Gd2 Fe17'
_cell_volume   270.11191582
_cell_formula_units_Z   1
loop_
 _symmetry_equiv_pos_site_id
 _symmetry_equiv_pos_as_xyz
  1  'x, y, z'
loop_
 _atom_site_type_symbol
 _atom_site_label
 _atom_site_symmetry_multiplicity
 _atom_site_fract_x
 _atom_site_fract_y
 _atom_site_fract_z
 _atom_site_occupancy
  Gd  Gd0  1  0.340675  0.340675  0.340675  1
  Gd  Gd1  1  0.659229  0.658495  0.651748  1
  Fe  Fe2  1  0.653243  0.650875  0.154399  1
  Fe  Fe3  1  0.699223  0.288890  -0.007132  1
  Fe  Fe4  1  0.290781  0.706134  -0.007966  1
  Fe  Fe5  1  0.843019  0.342029  0.335837  1
  Fe  Fe6  1  0.091699  0.088156  0.096409  1
  Fe  Fe7  1  0.335866  0.334114  0.841686  1
  Fe  Fe8  1  0.146674  0.651655  0.650545  1
  Fe  Fe9  1  -0.003148  -0.000430  0.490254  1
  Fe  Fe10  1  0.646487  0.145437  0.648540  1
  Fe  Fe11  1  -0.007650  0.698573  0.291461  1
  Fe  Fe12  1  -0.005055  0.291317  0.700546  1
  Fe  Fe13  1  0.893944  0.901581  0.900978  1
  Fe  Fe14  1  0.340213  0.844844  0.334393  1
  Fe  Fe15  1  0.497343  -0.006152  -0.001218  1
  Fe  Fe16  1  0.704878  -0.007227  0.288392  1
  Fe  Fe17  1  -0.005397  0.499125  -0.009789  1
  Fe  Fe18  1  0.291760  -0.007254  0.704922  1
