# generated using pymatgen
data_Gd2Fe17
_symmetry_space_group_name_H-M   'P 1'
_cell_length_a   6.44531243
_cell_length_b   6.45544444
_cell_length_c   6.46422662
_cell_angle_alpha   83.62733445
_cell_angle_beta   83.89272862
_cell_angle_gamma   84.91556988
_symmetry_Int_Tables_number   1
_chemical_formula_structural   Gd2Fe17
_chemical_formula_sum   'Gd2 Fe17'
_cell_volume   264.97620811
_cell_formula_units_Z   1
loop_
 _symmetry_equiv_pos_site_id
 _symmetry_equiv_pos_as_xyz
  1  'x, y, z'
loop_
 _atom_site_type_symbol
 _atom_site_label
 _atom_site_symmetry_multiplicity
 _atom_site_fract_x
 _atom_site_fract_y
 _atom_site_fract_z
 _atom_site_occupancy
  Gd  Gd0  1  0.340675  0.340675  0.340675  1
  Gd  Gd1  1  0.653411  0.657702  0.653601  1
  Fe  Fe2  1  0.648854  0.651362  0.153010  1
  Fe  Fe3  1  0.701023  0.291598  -0.002772  1
  Fe  Fe4  1  0.292949  0.699357  -0.008432  1
  Fe  Fe5  1  0.835353  0.334314  0.336485  1
  Fe  Fe6  1  0.090005  0.090754  0.092954  1
  Fe  Fe7  1  0.335953  0.333905  0.835552  1
  Fe  Fe8  1  0.151575  0.650673  0.650070  1
  Fe  Fe9  1  -0.003107  -0.002831  0.499141  1
  Fe  Fe10  1  0.646608  0.146395  0.654945  1
  Fe  Fe11  1  -0.002984  0.703897  0.291659  1
  Fe  Fe12  1  -0.003175  0.289112  0.704647  1
  Fe  Fe13  1  0.895662  0.901464  0.896919  1
  Fe  Fe14  1  0.339975  0.835354  0.337733  1
  Fe  Fe15  1  0.498118  -0.007190  -0.005138  1
  Fe  Fe16  1  0.698550  -0.004247  0.290530  1
  Fe  Fe17  1  -0.007653  0.499210  -0.000940  1
  Fe  Fe18  1  0.291066  -0.008612  0.704937  1
