# generated using pymatgen
data_YbFe2
_symmetry_space_group_name_H-M   'P 1'
_cell_length_a   5.07597469
_cell_length_b   5.13047849
_cell_length_c   5.04423229
_cell_angle_alpha   60.62923648
_cell_angle_beta   60.23385117
_cell_angle_gamma   60.84734483
_symmetry_Int_Tables_number   1
_chemical_formula_structural   YbFe2
_chemical_formula_sum   'Yb2 Fe4'
_cell_volume   94.07841081
_cell_formula_units_Z   2
loop_
 _symmetry_equiv_pos_site_id
 _symmetry_equiv_pos_as_xyz
  1  'x, y, z'
loop_
 _atom_site_type_symbol
 _atom_site_label
 _atom_site_symmetry_multiplicity
 _atom_site_fract_x
 _atom_site_fract_y
 _atom_site_fract_z
 _atom_site_occupancy
  Yb  Yb0  1  0.875000  0.875000  0.875000  1
  Yb  Yb1  1  0.123952  0.118433  0.121272  1
  Fe  Fe2  1  0.494306  0.490326  0.493112  1
  Fe  Fe3  1  0.494281  0.490999  -0.006355  1
  Fe  Fe4  1  -0.005662  0.497235  0.494709  1
  Fe  Fe5  1  0.490884  -0.005994  0.499941  1
