# generated using pymatgen
data_YbIr2
_symmetry_space_group_name_H-M   'P 1'
_cell_length_a   5.38973389
_cell_length_b   5.37714474
_cell_length_c   5.42265924
_cell_angle_alpha   60.61894664
_cell_angle_beta   61.94732816
_cell_angle_gamma   61.59983759
_symmetry_Int_Tables_number   1
_chemical_formula_structural   YbIr2
_chemical_formula_sum   'Yb2 Ir4'
_cell_volume   114.56137378
_cell_formula_units_Z   2
loop_
 _symmetry_equiv_pos_site_id
 _symmetry_equiv_pos_as_xyz
  1  'x, y, z'
loop_
 _atom_site_type_symbol
 _atom_site_label
 _atom_site_symmetry_multiplicity
 _atom_site_fract_x
 _atom_site_fract_y
 _atom_site_fract_z
 _atom_site_occupancy
  Yb  Yb0  1  0.125000  0.125000  0.125000  1
  Yb  Yb1  1  0.872746  0.871860  0.869156  1
  Ir  Ir2  1  -0.000387  0.495711  0.495346  1
  Ir  Ir3  1  0.490658  -0.001620  0.493979  1
  Ir  Ir4  1  0.494892  0.497903  -0.003017  1
  Ir  Ir5  1  0.494707  0.496023  0.492311  1
