# generated using pymatgen
data_CeAg
_symmetry_space_group_name_H-M   'P 1'
_cell_length_a   3.82139213
_cell_length_b   3.79247079
_cell_length_c   3.76424383
_cell_angle_alpha   91.68792213
_cell_angle_beta   91.40548361
_cell_angle_gamma   90.50768892
_symmetry_Int_Tables_number   1
_chemical_formula_structural   CeAg
_chemical_formula_sum   'Ce1 Ag1'
_cell_volume   54.51078805
_cell_formula_units_Z   1
loop_
 _symmetry_equiv_pos_site_id
 _symmetry_equiv_pos_as_xyz
  1  'x, y, z'
loop_
 _atom_site_type_symbol
 _atom_site_label
 _atom_site_symmetry_multiplicity
 _atom_site_fract_x
 _atom_site_fract_y
 _atom_site_fract_z
 _atom_site_occupancy
  Ce  Ce0  1  0.000000  0.000000  0.000000  1
  Ag  Ag1  1  0.498685  0.493537  0.497782  1
