# generated using pymatgen
data_YbAu4
_symmetry_space_group_name_H-M   'P 1'
_cell_length_a   4.35734139
_cell_length_b   5.24400218
_cell_length_c   5.22947083
_cell_angle_alpha   81.61673993
_cell_angle_beta   66.72326086
_cell_angle_gamma   66.60704402
_symmetry_Int_Tables_number   1
_chemical_formula_structural   YbAu4
_chemical_formula_sum   'Yb1 Au4'
_cell_volume   100.73581663
_cell_formula_units_Z   1
loop_
 _symmetry_equiv_pos_site_id
 _symmetry_equiv_pos_as_xyz
  1  'x, y, z'
loop_
 _atom_site_type_symbol
 _atom_site_label
 _atom_site_symmetry_multiplicity
 _atom_site_fract_x
 _atom_site_fract_y
 _atom_site_fract_z
 _atom_site_occupancy
  Yb  Yb0  1  0.000000  0.000000  0.000000  1
  Au  Au1  1  0.583491  0.605179  0.205360  1
  Au  Au2  1  0.397953  0.386065  0.791829  1
  Au  Au3  1  0.799971  0.785538  0.604296  1
  Au  Au4  1  0.198369  0.204653  0.387221  1
