# generated using pymatgen
data_GdRh2
_symmetry_space_group_name_H-M   'P 1'
_cell_length_a   5.46799006
_cell_length_b   5.46564871
_cell_length_c   5.42924392
_cell_angle_alpha   60.99022187
_cell_angle_beta   61.50739763
_cell_angle_gamma   61.84884838
_symmetry_Int_Tables_number   1
_chemical_formula_structural   GdRh2
_chemical_formula_sum   'Gd2 Rh4'
_cell_volume   118.45430971
_cell_formula_units_Z   2
loop_
 _symmetry_equiv_pos_site_id
 _symmetry_equiv_pos_as_xyz
  1  'x, y, z'
loop_
 _atom_site_type_symbol
 _atom_site_label
 _atom_site_symmetry_multiplicity
 _atom_site_fract_x
 _atom_site_fract_y
 _atom_site_fract_z
 _atom_site_occupancy
  Gd  Gd0  1  0.125000  0.125000  0.125000  1
  Gd  Gd1  1  0.873122  0.871572  0.870870  1
  Rh  Rh2  1  0.497107  -0.000579  0.499462  1
  Rh  Rh3  1  -0.007685  0.497323  0.494619  1
  Rh  Rh4  1  0.497466  0.492616  0.496194  1
  Rh  Rh5  1  0.498275  0.493664  -0.003783  1
