# generated using pymatgen
data_GdRh2
_symmetry_space_group_name_H-M   'P 1'
_cell_length_a   5.42047367
_cell_length_b   5.42516098
_cell_length_c   5.38038238
_cell_angle_alpha   61.09140357
_cell_angle_beta   61.44741619
_cell_angle_gamma   60.75667753
_symmetry_Int_Tables_number   1
_chemical_formula_structural   GdRh2
_chemical_formula_sum   'Gd2 Rh4'
_cell_volume   114.63721783
_cell_formula_units_Z   2
loop_
 _symmetry_equiv_pos_site_id
 _symmetry_equiv_pos_as_xyz
  1  'x, y, z'
loop_
 _atom_site_type_symbol
 _atom_site_label
 _atom_site_symmetry_multiplicity
 _atom_site_fract_x
 _atom_site_fract_y
 _atom_site_fract_z
 _atom_site_occupancy
  Gd  Gd0  1  0.125000  0.125000  0.125000  1
  Gd  Gd1  1  0.866522  0.867438  0.872327  1
  Rh  Rh2  1  0.496657  -0.003608  0.493353  1
  Rh  Rh3  1  -0.000793  0.496967  0.490837  1
  Rh  Rh4  1  0.495302  0.499987  0.490160  1
  Rh  Rh5  1  0.490257  0.493534  -0.004032  1
