# generated using pymatgen
data_YbPd3
_symmetry_space_group_name_H-M   'P 1'
_cell_length_a   4.14906850
_cell_length_b   4.17272050
_cell_length_c   4.14126612
_cell_angle_alpha   91.32720415
_cell_angle_beta   91.03717011
_cell_angle_gamma   90.10679078
_symmetry_Int_Tables_number   1
_chemical_formula_structural   YbPd3
_chemical_formula_sum   'Yb1 Pd3'
_cell_volume   71.66617423
_cell_formula_units_Z   1
loop_
 _symmetry_equiv_pos_site_id
 _symmetry_equiv_pos_as_xyz
  1  'x, y, z'
loop_
 _atom_site_type_symbol
 _atom_site_label
 _atom_site_symmetry_multiplicity
 _atom_site_fract_x
 _atom_site_fract_y
 _atom_site_fract_z
 _atom_site_occupancy
  Yb  Yb0  1  0.000000  0.000000  0.000000  1
  Pd  Pd1  1  -0.002235  0.497627  0.493969  1
  Pd  Pd2  1  0.498773  0.490284  -0.004075  1
  Pd  Pd3  1  0.493052  -0.007740  0.498521  1
