# generated using pymatgen
data_Gd3Pd2
_symmetry_space_group_name_H-M   'P 1'
_cell_length_a   3.97068953
_cell_length_b   7.93682923
_cell_length_c   7.95422701
_cell_angle_alpha   90.20789686
_cell_angle_beta   90.12126367
_cell_angle_gamma   91.75573407
_symmetry_Int_Tables_number   1
_chemical_formula_structural   Gd3Pd2
_chemical_formula_sum   'Gd6 Pd4'
_cell_volume   250.55500036
_cell_formula_units_Z   2
loop_
 _symmetry_equiv_pos_site_id
 _symmetry_equiv_pos_as_xyz
  1  'x, y, z'
loop_
 _atom_site_type_symbol
 _atom_site_label
 _atom_site_symmetry_multiplicity
 _atom_site_fract_x
 _atom_site_fract_y
 _atom_site_fract_z
 _atom_site_occupancy
  Gd  Gd0  1  0.500000  0.665132  0.834868  1
  Gd  Gd1  1  0.493613  0.828737  0.330902  1
  Gd  Gd2  1  0.499097  0.333859  0.160474  1
  Gd  Gd3  1  0.496714  0.165025  0.664366  1
  Gd  Gd4  1  -0.000262  0.496505  0.490049  1
  Gd  Gd5  1  -0.005596  -0.005336  -0.000559  1
  Pd  Pd6  1  -0.007217  0.622888  0.129104  1
  Pd  Pd7  1  -0.005662  0.865224  0.621721  1
  Pd  Pd8  1  -0.005427  0.127401  0.360407  1
  Pd  Pd9  1  -0.007034  0.367684  0.863240  1
