# generated using pymatgen
data_GdPt3
_symmetry_space_group_name_H-M   'P 1'
_cell_length_a   4.17081556
_cell_length_b   4.15168292
_cell_length_c   4.18860631
_cell_angle_alpha   91.82432779
_cell_angle_beta   90.16596093
_cell_angle_gamma   91.08219794
_symmetry_Int_Tables_number   1
_chemical_formula_structural   GdPt3
_chemical_formula_sum   'Gd1 Pt3'
_cell_volume   72.47936624
_cell_formula_units_Z   1
loop_
 _symmetry_equiv_pos_site_id
 _symmetry_equiv_pos_as_xyz
  1  'x, y, z'
loop_
 _atom_site_type_symbol
 _atom_site_label
 _atom_site_symmetry_multiplicity
 _atom_site_fract_x
 _atom_site_fract_y
 _atom_site_fract_z
 _atom_site_occupancy
  Gd  Gd0  1  0.000000  0.000000  0.000000  1
  Pt  Pt1  1  -0.000923  0.490705  0.494872  1
  Pt  Pt2  1  0.498319  0.493407  -0.006841  1
  Pt  Pt3  1  0.491782  -0.002054  0.498564  1
