# generated using pymatgen
data_YbAg
_symmetry_space_group_name_H-M   'P 1'
_cell_length_a   3.68564827
_cell_length_b   3.68510827
_cell_length_c   3.67501726
_cell_angle_alpha   91.53051527
_cell_angle_beta   90.52908886
_cell_angle_gamma   91.01424569
_symmetry_Int_Tables_number   1
_chemical_formula_structural   YbAg
_chemical_formula_sum   'Yb1 Ag1'
_cell_volume   49.88615431
_cell_formula_units_Z   1
loop_
 _symmetry_equiv_pos_site_id
 _symmetry_equiv_pos_as_xyz
  1  'x, y, z'
loop_
 _atom_site_type_symbol
 _atom_site_label
 _atom_site_symmetry_multiplicity
 _atom_site_fract_x
 _atom_site_fract_y
 _atom_site_fract_z
 _atom_site_occupancy
  Yb  Yb0  1  0.500000  0.500000  0.500000  1
  Ag  Ag1  1  -0.007582  -0.009691  -0.000779  1
