# generated using pymatgen
data_Gd2Zn17
_symmetry_space_group_name_H-M   'P 1'
_cell_length_a   6.84773240
_cell_length_b   6.89657608
_cell_length_c   6.86417187
_cell_angle_alpha   84.55280271
_cell_angle_beta   82.80794033
_cell_angle_gamma   83.10033836
_symmetry_Int_Tables_number   1
_chemical_formula_structural   Gd2Zn17
_chemical_formula_sum   'Gd2 Zn17'
_cell_volume   318.23510708
_cell_formula_units_Z   1
loop_
 _symmetry_equiv_pos_site_id
 _symmetry_equiv_pos_as_xyz
  1  'x, y, z'
loop_
 _atom_site_type_symbol
 _atom_site_label
 _atom_site_symmetry_multiplicity
 _atom_site_fract_x
 _atom_site_fract_y
 _atom_site_fract_z
 _atom_site_occupancy
  Gd  Gd0  1  0.664653  0.664653  0.664653  1
  Gd  Gd1  1  0.334918  0.331053  0.325713  1
  Zn  Zn2  1  0.350936  0.349909  0.833074  1
  Zn  Zn3  1  0.290507  0.697626  -0.000760  1
  Zn  Zn4  1  -0.006352  0.295101  0.698077  1
  Zn  Zn5  1  0.350841  0.835851  0.350675  1
  Zn  Zn6  1  0.644288  0.640551  0.154428  1
  Zn  Zn7  1  0.830758  0.341112  0.349452  1
  Zn  Zn8  1  0.699812  -0.000747  0.287789  1
  Zn  Zn9  1  0.157055  0.645755  0.648683  1
  Zn  Zn10  1  0.640491  0.160577  0.646666  1
  Zn  Zn11  1  -0.001520  -0.008835  0.495350  1
  Zn  Zn12  1  0.698085  0.291599  -0.004854  1
  Zn  Zn13  1  0.097258  0.094340  0.091262  1
  Zn  Zn14  1  -0.007794  0.697454  0.289550  1
  Zn  Zn15  1  -0.002227  0.493186  -0.005276  1
  Zn  Zn16  1  0.890542  0.890963  0.890308  1
  Zn  Zn17  1  0.493755  -0.008220  -0.006590  1
  Zn  Zn18  1  0.287005  -0.002012  0.695094  1
