# generated using pymatgen
data_EuRh2
_symmetry_space_group_name_H-M   'P 1'
_cell_length_a   5.47507377
_cell_length_b   5.47403592
_cell_length_c   5.46820531
_cell_angle_alpha   60.93906623
_cell_angle_beta   61.20998112
_cell_angle_gamma   61.08795462
_symmetry_Int_Tables_number   1
_chemical_formula_structural   EuRh2
_chemical_formula_sum   'Eu2 Rh4'
_cell_volume   118.69876856
_cell_formula_units_Z   2
loop_
 _symmetry_equiv_pos_site_id
 _symmetry_equiv_pos_as_xyz
  1  'x, y, z'
loop_
 _atom_site_type_symbol
 _atom_site_label
 _atom_site_symmetry_multiplicity
 _atom_site_fract_x
 _atom_site_fract_y
 _atom_site_fract_z
 _atom_site_occupancy
  Eu  Eu0  1  0.124982  0.124991  0.124969  1
  Eu  Eu1  1  0.874833  0.870331  0.873568  1
  Rh  Rh2  1  0.491552  0.491726  0.990029  1
  Rh  Rh3  1  0.493213  -0.007699  0.492268  1
  Rh  Rh4  1  0.494927  0.497645  0.496823  1
  Rh  Rh5  1  -0.001338  0.493883  0.490080  1
