# generated using pymatgen
data_GdIr3
_symmetry_space_group_name_H-M   'P 1'
_cell_length_a   4.14999519
_cell_length_b   4.11257740
_cell_length_c   4.15783925
_cell_angle_alpha   90.23983275
_cell_angle_beta   91.49820625
_cell_angle_gamma   90.97699206
_symmetry_Int_Tables_number   1
_chemical_formula_structural   GdIr3
_chemical_formula_sum   'Gd1 Ir3'
_cell_volume   70.92724268
_cell_formula_units_Z   1
loop_
 _symmetry_equiv_pos_site_id
 _symmetry_equiv_pos_as_xyz
  1  'x, y, z'
loop_
 _atom_site_type_symbol
 _atom_site_label
 _atom_site_symmetry_multiplicity
 _atom_site_fract_x
 _atom_site_fract_y
 _atom_site_fract_z
 _atom_site_occupancy
  Gd  Gd0  1  0.000000  0.000000  0.000000  1
  Ir  Ir1  1  -0.001121  0.496947  0.495533  1
  Ir  Ir2  1  0.493456  0.495780  -0.009466  1
  Ir  Ir3  1  0.490083  -0.005038  0.499500  1
