# generated using pymatgen
data_GdHg
_symmetry_space_group_name_H-M   'P 1'
_cell_length_a   3.81027677
_cell_length_b   3.83353554
_cell_length_c   3.84464534
_cell_angle_alpha   91.91292398
_cell_angle_beta   90.69107023
_cell_angle_gamma   90.49002940
_symmetry_Int_Tables_number   1
_chemical_formula_structural   GdHg
_chemical_formula_sum   'Gd1 Hg1'
_cell_volume   56.12045428
_cell_formula_units_Z   1
loop_
 _symmetry_equiv_pos_site_id
 _symmetry_equiv_pos_as_xyz
  1  'x, y, z'
loop_
 _atom_site_type_symbol
 _atom_site_label
 _atom_site_symmetry_multiplicity
 _atom_site_fract_x
 _atom_site_fract_y
 _atom_site_fract_z
 _atom_site_occupancy
  Gd  Gd0  1  0.000000  0.000000  0.000000  1
  Hg  Hg1  1  0.491407  0.491935  0.499850  1
