# generated using pymatgen
data_YbAu3
_symmetry_space_group_name_H-M   'P 1'
_cell_length_a   6.11003333
_cell_length_b   6.10244798
_cell_length_c   5.10184467
_cell_angle_alpha   91.26596666
_cell_angle_beta   91.02249615
_cell_angle_gamma   120.62274392
_symmetry_Int_Tables_number   1
_chemical_formula_structural   YbAu3
_chemical_formula_sum   'Yb2 Au6'
_cell_volume   163.56535659
_cell_formula_units_Z   2
loop_
 _symmetry_equiv_pos_site_id
 _symmetry_equiv_pos_as_xyz
  1  'x, y, z'
loop_
 _atom_site_type_symbol
 _atom_site_label
 _atom_site_symmetry_multiplicity
 _atom_site_fract_x
 _atom_site_fract_y
 _atom_site_fract_z
 _atom_site_occupancy
  Yb  Yb0  1  0.333333  0.666667  0.750001  1
  Yb  Yb1  1  0.666527  0.328070  0.240559  1
  Au  Au2  1  0.156302  0.324857  0.249608  1
  Au  Au3  1  0.668086  0.835130  0.248674  1
  Au  Au4  1  0.158516  0.830891  0.247870  1
  Au  Au5  1  0.828453  0.663437  0.747410  1
  Au  Au6  1  0.326258  0.158030  0.746789  1
  Au  Au7  1  0.825526  0.155999  0.746719  1
