# generated using pymatgen
data_EuNi3
_symmetry_space_group_name_H-M   'P 1'
_cell_length_a   3.89802261
_cell_length_b   3.93895032
_cell_length_c   3.97321008
_cell_angle_alpha   91.09411706
_cell_angle_beta   91.97656699
_cell_angle_gamma   91.09682207
_symmetry_Int_Tables_number   1
_chemical_formula_structural   EuNi3
_chemical_formula_sum   'Eu1 Ni3'
_cell_volume   60.94575157
_cell_formula_units_Z   1
loop_
 _symmetry_equiv_pos_site_id
 _symmetry_equiv_pos_as_xyz
  1  'x, y, z'
loop_
 _atom_site_type_symbol
 _atom_site_label
 _atom_site_symmetry_multiplicity
 _atom_site_fract_x
 _atom_site_fract_y
 _atom_site_fract_z
 _atom_site_occupancy
  Eu  Eu0  1  0.999999  0.999999  0.999999  1
  Ni  Ni1  1  -0.002081  0.491259  0.494452  1
  Ni  Ni2  1  0.498157  -0.003352  0.494158  1
  Ni  Ni3  1  0.498641  0.496253  -0.009109  1
