# generated using pymatgen
data_YbAu4
_symmetry_space_group_name_H-M   'P 1'
_cell_length_a   4.41183734
_cell_length_b   5.25582596
_cell_length_c   5.20870934
_cell_angle_alpha   80.10580238
_cell_angle_beta   66.41319212
_cell_angle_gamma   66.94073685
_symmetry_Int_Tables_number   1
_chemical_formula_structural   YbAu4
_chemical_formula_sum   'Yb1 Au4'
_cell_volume   101.82798486
_cell_formula_units_Z   1
loop_
 _symmetry_equiv_pos_site_id
 _symmetry_equiv_pos_as_xyz
  1  'x, y, z'
loop_
 _atom_site_type_symbol
 _atom_site_label
 _atom_site_symmetry_multiplicity
 _atom_site_fract_x
 _atom_site_fract_y
 _atom_site_fract_z
 _atom_site_occupancy
  Yb  Yb0  1  0.000000  0.000000  0.000000  1
  Au  Au1  1  0.589503  0.597204  0.205637  1
  Au  Au2  1  0.398993  0.390098  0.789893  1
  Au  Au3  1  0.794026  0.790203  0.601806  1
  Au  Au4  1  0.197808  0.199268  0.384064  1
