# generated using pymatgen
data_GdIr3
_symmetry_space_group_name_H-M   'P 1'
_cell_length_a   4.15947924
_cell_length_b   4.13940588
_cell_length_c   4.13073188
_cell_angle_alpha   90.87385577
_cell_angle_beta   91.35022821
_cell_angle_gamma   90.66287382
_symmetry_Int_Tables_number   1
_chemical_formula_structural   GdIr3
_chemical_formula_sum   'Gd1 Ir3'
_cell_volume   71.08892367
_cell_formula_units_Z   1
loop_
 _symmetry_equiv_pos_site_id
 _symmetry_equiv_pos_as_xyz
  1  'x, y, z'
loop_
 _atom_site_type_symbol
 _atom_site_label
 _atom_site_symmetry_multiplicity
 _atom_site_fract_x
 _atom_site_fract_y
 _atom_site_fract_z
 _atom_site_occupancy
  Gd  Gd0  1  0.000000  0.000000  0.000000  1
  Ir  Ir1  1  -0.005102  0.491519  0.497884  1
  Ir  Ir2  1  0.493214  0.497737  -0.003753  1
  Ir  Ir3  1  0.495060  -0.001085  0.490707  1
