# generated using pymatgen
data_GdPt3
_symmetry_space_group_name_H-M   'P 1'
_cell_length_a   4.20436265
_cell_length_b   4.21626026
_cell_length_c   4.15326024
_cell_angle_alpha   90.16670206
_cell_angle_beta   90.30669256
_cell_angle_gamma   91.87889540
_symmetry_Int_Tables_number   1
_chemical_formula_structural   GdPt3
_chemical_formula_sum   'Gd1 Pt3'
_cell_volume   73.58255733
_cell_formula_units_Z   1
loop_
 _symmetry_equiv_pos_site_id
 _symmetry_equiv_pos_as_xyz
  1  'x, y, z'
loop_
 _atom_site_type_symbol
 _atom_site_label
 _atom_site_symmetry_multiplicity
 _atom_site_fract_x
 _atom_site_fract_y
 _atom_site_fract_z
 _atom_site_occupancy
  Gd  Gd0  1  0.000000  0.000000  0.000000  1
  Pt  Pt1  1  -0.003688  0.491663  0.499692  1
  Pt  Pt2  1  0.496353  0.499664  -0.006990  1
  Pt  Pt3  1  0.496992  -0.008312  0.498964  1
