# generated using pymatgen
data_GdCu5
_symmetry_space_group_name_H-M   'P 1'
_cell_length_a   5.02074639
_cell_length_b   5.01307389
_cell_length_c   4.07618670
_cell_angle_alpha   91.72477322
_cell_angle_beta   91.30323864
_cell_angle_gamma   121.65748623
_symmetry_Int_Tables_number   1
_chemical_formula_structural   GdCu5
_chemical_formula_sum   'Gd1 Cu5'
_cell_volume   87.19982811
_cell_formula_units_Z   1
loop_
 _symmetry_equiv_pos_site_id
 _symmetry_equiv_pos_as_xyz
  1  'x, y, z'
loop_
 _atom_site_type_symbol
 _atom_site_label
 _atom_site_symmetry_multiplicity
 _atom_site_fract_x
 _atom_site_fract_y
 _atom_site_fract_z
 _atom_site_occupancy
  Gd  Gd0  1  0.000000  0.000000  0.000000  1
  Cu  Cu1  1  0.497053  0.496078  0.493816  1
  Cu  Cu2  1  0.659348  0.324243  -0.003983  1
  Cu  Cu3  1  -0.006992  0.492108  0.495780  1
  Cu  Cu4  1  0.329224  0.666387  -0.006787  1
  Cu  Cu5  1  0.493865  -0.002237  0.495616  1
