# generated using pymatgen
data_GdCu5
_symmetry_space_group_name_H-M   'P 1'
_cell_length_a   5.10159770
_cell_length_b   5.10197735
_cell_length_c   4.14408599
_cell_angle_alpha   91.02223443
_cell_angle_beta   90.38248249
_cell_angle_gamma   120.58488020
_symmetry_Int_Tables_number   1
_chemical_formula_structural   GdCu5
_chemical_formula_sum   'Gd1 Cu5'
_cell_volume   92.82658811
_cell_formula_units_Z   1
loop_
 _symmetry_equiv_pos_site_id
 _symmetry_equiv_pos_as_xyz
  1  'x, y, z'
loop_
 _atom_site_type_symbol
 _atom_site_label
 _atom_site_symmetry_multiplicity
 _atom_site_fract_x
 _atom_site_fract_y
 _atom_site_fract_z
 _atom_site_occupancy
  Gd  Gd0  1  0.000000  0.000000  0.000000  1
  Cu  Cu1  1  0.495201  0.497244  0.496362  1
  Cu  Cu2  1  0.665339  0.330837  -0.006956  1
  Cu  Cu3  1  -0.004017  0.492814  0.491961  1
  Cu  Cu4  1  0.324363  0.658105  -0.006051  1
  Cu  Cu5  1  0.495762  -0.000207  0.498807  1
