# generated using pymatgen
data_Yb3Ag2
_symmetry_space_group_name_H-M   'P 1'
_cell_length_a   4.23193269
_cell_length_b   8.21615053
_cell_length_c   8.23470724
_cell_angle_alpha   90.34721221
_cell_angle_beta   90.73368672
_cell_angle_gamma   91.81425917
_symmetry_Int_Tables_number   1
_chemical_formula_structural   Yb3Ag2
_chemical_formula_sum   'Yb6 Ag4'
_cell_volume   286.14940506
_cell_formula_units_Z   2
loop_
 _symmetry_equiv_pos_site_id
 _symmetry_equiv_pos_as_xyz
  1  'x, y, z'
loop_
 _atom_site_type_symbol
 _atom_site_label
 _atom_site_symmetry_multiplicity
 _atom_site_fract_x
 _atom_site_fract_y
 _atom_site_fract_z
 _atom_site_occupancy
  Yb  Yb0  1  0.500000  0.837916  0.337916  1
  Yb  Yb1  1  0.492694  0.653195  0.834088  1
  Yb  Yb2  1  -0.009350  -0.007885  -0.003615  1
  Yb  Yb3  1  0.493453  0.155562  0.657941  1
  Yb  Yb4  1  0.494130  0.331716  0.154217  1
  Yb  Yb5  1  -0.004252  0.496328  0.497089  1
  Ag  Ag6  1  -0.009364  0.367140  0.863201  1
  Ag  Ag7  1  -0.007228  0.628259  0.126827  1
  Ag  Ag8  1  -0.008859  0.126639  0.370282  1
  Ag  Ag9  1  -0.007866  0.863816  0.628959  1
