# generated using pymatgen
data_EuHg2
_symmetry_space_group_name_H-M   'P 1'
_cell_length_a   5.12024483
_cell_length_b   5.16063672
_cell_length_c   3.76004906
_cell_angle_alpha   90.33870567
_cell_angle_beta   91.68809049
_cell_angle_gamma   120.43200422
_symmetry_Int_Tables_number   1
_chemical_formula_structural   EuHg2
_chemical_formula_sum   'Eu1 Hg2'
_cell_volume   85.60431638
_cell_formula_units_Z   1
loop_
 _symmetry_equiv_pos_site_id
 _symmetry_equiv_pos_as_xyz
  1  'x, y, z'
loop_
 _atom_site_type_symbol
 _atom_site_label
 _atom_site_symmetry_multiplicity
 _atom_site_fract_x
 _atom_site_fract_y
 _atom_site_fract_z
 _atom_site_occupancy
  Eu  Eu0  1  0.000000  0.000000  0.000000  1
  Hg  Hg1  1  0.323507  0.662428  0.498108  1
  Hg  Hg2  1  0.665806  0.329311  0.498973  1
