# generated using pymatgen
data_EuZn
_symmetry_space_group_name_H-M   'P 1'
_cell_length_a   3.82186246
_cell_length_b   3.76972226
_cell_length_c   3.79777186
_cell_angle_alpha   91.01692450
_cell_angle_beta   91.46056401
_cell_angle_gamma   90.09344319
_symmetry_Int_Tables_number   1
_chemical_formula_structural   EuZn
_chemical_formula_sum   'Eu1 Zn1'
_cell_volume   54.68935545
_cell_formula_units_Z   1
loop_
 _symmetry_equiv_pos_site_id
 _symmetry_equiv_pos_as_xyz
  1  'x, y, z'
loop_
 _atom_site_type_symbol
 _atom_site_label
 _atom_site_symmetry_multiplicity
 _atom_site_fract_x
 _atom_site_fract_y
 _atom_site_fract_z
 _atom_site_occupancy
  Eu  Eu0  1  0.000000  0.000000  0.000000  1
  Zn  Zn1  1  0.497517  0.499021  0.498940  1
