# generated using pymatgen
data_EuNi3
_symmetry_space_group_name_H-M   'P 1'
_cell_length_a   3.97446338
_cell_length_b   3.97419430
_cell_length_c   3.92187738
_cell_angle_alpha   90.46307228
_cell_angle_beta   91.78410933
_cell_angle_gamma   90.24476873
_symmetry_Int_Tables_number   1
_chemical_formula_structural   EuNi3
_chemical_formula_sum   'Eu1 Ni3'
_cell_volume   61.91450307
_cell_formula_units_Z   1
loop_
 _symmetry_equiv_pos_site_id
 _symmetry_equiv_pos_as_xyz
  1  'x, y, z'
loop_
 _atom_site_type_symbol
 _atom_site_label
 _atom_site_symmetry_multiplicity
 _atom_site_fract_x
 _atom_site_fract_y
 _atom_site_fract_z
 _atom_site_occupancy
  Eu  Eu0  1  0.999999  0.999999  0.999999  1
  Ni  Ni1  1  -0.001457  0.492014  0.494641  1
  Ni  Ni2  1  0.495111  -0.009010  0.494038  1
  Ni  Ni3  1  0.498371  0.499649  -0.009837  1
