# generated using pymatgen
data_YbCo2
_symmetry_space_group_name_H-M   'P 1'
_cell_length_a   5.02888062
_cell_length_b   5.03812810
_cell_length_c   5.03159467
_cell_angle_alpha   61.15078226
_cell_angle_beta   60.87385410
_cell_angle_gamma   60.36349798
_symmetry_Int_Tables_number   1
_chemical_formula_structural   YbCo2
_chemical_formula_sum   'Yb2 Co4'
_cell_volume   91.75269230
_cell_formula_units_Z   2
loop_
 _symmetry_equiv_pos_site_id
 _symmetry_equiv_pos_as_xyz
  1  'x, y, z'
loop_
 _atom_site_type_symbol
 _atom_site_label
 _atom_site_symmetry_multiplicity
 _atom_site_fract_x
 _atom_site_fract_y
 _atom_site_fract_z
 _atom_site_occupancy
  Yb  Yb0  1  0.875000  0.875000  0.875000  1
  Yb  Yb1  1  0.121895  0.117999  0.124243  1
  Co  Co2  1  0.497231  0.495076  0.490407  1
  Co  Co3  1  0.494166  0.494690  -0.008268  1
  Co  Co4  1  -0.009778  0.494729  0.499107  1
  Co  Co5  1  0.490846  -0.002262  0.499562  1
