# generated using pymatgen
data_GdPt
_symmetry_space_group_name_H-M   'P 1'
_cell_length_a   4.52007585
_cell_length_b   5.66738771
_cell_length_c   7.21721079
_cell_angle_alpha   90.46284015
_cell_angle_beta   91.70012229
_cell_angle_gamma   90.90133177
_symmetry_Int_Tables_number   1
_chemical_formula_structural   GdPt
_chemical_formula_sum   'Gd4 Pt4'
_cell_volume   184.77244451
_cell_formula_units_Z   4
loop_
 _symmetry_equiv_pos_site_id
 _symmetry_equiv_pos_as_xyz
  1  'x, y, z'
loop_
 _atom_site_type_symbol
 _atom_site_label
 _atom_site_symmetry_multiplicity
 _atom_site_fract_x
 _atom_site_fract_y
 _atom_site_fract_z
 _atom_site_occupancy
  Gd  Gd0  1  0.250000  0.141564  0.182329  1
  Gd  Gd1  1  0.744347  0.853029  0.810822  1
  Gd  Gd2  1  0.748045  0.634698  0.310694  1
  Gd  Gd3  1  0.240834  0.357572  0.682073  1
  Pt  Pt4  1  0.247460  0.650578  0.037593  1
  Pt  Pt5  1  0.746246  0.343317  0.948800  1
  Pt  Pt6  1  0.746065  0.153330  0.450165  1
  Pt  Pt7  1  0.240225  0.840158  0.540098  1
