# generated using pymatgen
data_GdOs2
_symmetry_space_group_name_H-M   'P 1'
_cell_length_a   5.34936410
_cell_length_b   5.41719781
_cell_length_c   9.03324116
_cell_angle_alpha   91.34237816
_cell_angle_beta   91.88325329
_cell_angle_gamma   121.39446337
_symmetry_Int_Tables_number   1
_chemical_formula_structural   GdOs2
_chemical_formula_sum   'Gd4 Os8'
_cell_volume   223.07442423
_cell_formula_units_Z   4
loop_
 _symmetry_equiv_pos_site_id
 _symmetry_equiv_pos_as_xyz
  1  'x, y, z'
loop_
 _atom_site_type_symbol
 _atom_site_label
 _atom_site_symmetry_multiplicity
 _atom_site_fract_x
 _atom_site_fract_y
 _atom_site_fract_z
 _atom_site_occupancy
  Gd  Gd0  1  0.333333  0.666667  0.065379  1
  Gd  Gd1  1  0.665477  0.329818  0.564283  1
  Gd  Gd2  1  0.664477  0.327051  0.931740  1
  Gd  Gd3  1  0.324495  0.661420  0.426136  1
  Os  Os4  1  -0.009744  -0.005526  -0.000027  1
  Os  Os5  1  -0.002467  -0.008652  0.495263  1
  Os  Os6  1  0.820608  0.655458  0.242514  1
  Os  Os7  1  0.160951  0.825840  0.741572  1
  Os  Os8  1  0.654330  0.823205  0.741568  1
  Os  Os9  1  0.332104  0.164676  0.241694  1
  Os  Os10  1  0.825050  0.162751  0.242733  1
  Os  Os11  1  0.162824  0.333683  0.749888  1
