# generated using pymatgen
data_YbOs3
_symmetry_space_group_name_H-M   'P 1'
_cell_length_a   4.61617529
_cell_length_b   4.64172009
_cell_length_c   4.66437721
_cell_angle_alpha   125.65018487
_cell_angle_beta   125.03699396
_cell_angle_gamma   82.36466001
_symmetry_Int_Tables_number   1
_chemical_formula_structural   YbOs3
_chemical_formula_sum   'Yb1 Os3'
_cell_volume   63.36534745
_cell_formula_units_Z   1
loop_
 _symmetry_equiv_pos_site_id
 _symmetry_equiv_pos_as_xyz
  1  'x, y, z'
loop_
 _atom_site_type_symbol
 _atom_site_label
 _atom_site_symmetry_multiplicity
 _atom_site_fract_x
 _atom_site_fract_y
 _atom_site_fract_z
 _atom_site_occupancy
  Yb  Yb0  1  0.000000  0.000000  0.000000  1
  Os  Os1  1  0.747512  0.241411  0.494326  1
  Os  Os2  1  0.245401  0.742901  0.498057  1
  Os  Os3  1  0.493026  0.498173  -0.008890  1
