# generated using pymatgen
data_YbOs3
_symmetry_space_group_name_H-M   'P 1'
_cell_length_a   4.60313916
_cell_length_b   4.66028245
_cell_length_c   4.65511367
_cell_angle_alpha   125.07224087
_cell_angle_beta   125.82626392
_cell_angle_gamma   84.20176163
_symmetry_Int_Tables_number   1
_chemical_formula_structural   YbOs3
_chemical_formula_sum   'Yb1 Os3'
_cell_volume   61.95941371
_cell_formula_units_Z   1
loop_
 _symmetry_equiv_pos_site_id
 _symmetry_equiv_pos_as_xyz
  1  'x, y, z'
loop_
 _atom_site_type_symbol
 _atom_site_label
 _atom_site_symmetry_multiplicity
 _atom_site_fract_x
 _atom_site_fract_y
 _atom_site_fract_z
 _atom_site_occupancy
  Yb  Yb0  1  0.000000  0.000000  0.000000  1
  Os  Os1  1  0.746500  0.243078  0.495028  1
  Os  Os2  1  0.247608  0.745035  0.494033  1
  Os  Os3  1  0.496323  0.499879  -0.004119  1
