# generated using pymatgen
data_GdPt
_symmetry_space_group_name_H-M   'P 1'
_cell_length_a   4.58949695
_cell_length_b   5.69524358
_cell_length_c   7.28852658
_cell_angle_alpha   91.78219947
_cell_angle_beta   91.20401669
_cell_angle_gamma   90.15524184
_symmetry_Int_Tables_number   1
_chemical_formula_structural   GdPt
_chemical_formula_sum   'Gd4 Pt4'
_cell_volume   190.37444151
_cell_formula_units_Z   4
loop_
 _symmetry_equiv_pos_site_id
 _symmetry_equiv_pos_as_xyz
  1  'x, y, z'
loop_
 _atom_site_type_symbol
 _atom_site_label
 _atom_site_symmetry_multiplicity
 _atom_site_fract_x
 _atom_site_fract_y
 _atom_site_fract_z
 _atom_site_occupancy
  Gd  Gd0  1  0.250000  0.141564  0.182329  1
  Gd  Gd1  1  0.741807  0.858119  0.813472  1
  Gd  Gd2  1  0.749123  0.635708  0.313335  1
  Gd  Gd3  1  0.247667  0.352372  0.672782  1
  Pt  Pt4  1  0.247444  0.646883  0.037372  1
  Pt  Pt5  1  0.747584  0.339685  0.951547  1
  Pt  Pt6  1  0.747045  0.146060  0.454403  1
  Pt  Pt7  1  0.241918  0.838126  0.540651  1
