# generated using pymatgen
data_YbPd3
_symmetry_space_group_name_H-M   'P 1'
_cell_length_a   4.15389682
_cell_length_b   4.13051929
_cell_length_c   4.11336777
_cell_angle_alpha   91.93661330
_cell_angle_beta   91.26586672
_cell_angle_gamma   91.85871905
_symmetry_Int_Tables_number   1
_chemical_formula_structural   YbPd3
_chemical_formula_sum   'Yb1 Pd3'
_cell_volume   70.47971873
_cell_formula_units_Z   1
loop_
 _symmetry_equiv_pos_site_id
 _symmetry_equiv_pos_as_xyz
  1  'x, y, z'
loop_
 _atom_site_type_symbol
 _atom_site_label
 _atom_site_symmetry_multiplicity
 _atom_site_fract_x
 _atom_site_fract_y
 _atom_site_fract_z
 _atom_site_occupancy
  Yb  Yb0  1  0.000000  0.000000  0.000000  1
  Pd  Pd1  1  -0.007458  0.493399  0.494427  1
  Pd  Pd2  1  0.491223  0.499029  -0.001238  1
  Pd  Pd3  1  0.494508  -0.004116  0.492634  1
