# generated using pymatgen
data_EuPd2
_symmetry_space_group_name_H-M   'P 1'
_cell_length_a   5.58945846
_cell_length_b   5.56081115
_cell_length_c   5.64005457
_cell_angle_alpha   60.82136600
_cell_angle_beta   61.93889271
_cell_angle_gamma   60.54798557
_symmetry_Int_Tables_number   1
_chemical_formula_structural   EuPd2
_chemical_formula_sum   'Eu2 Pd4'
_cell_volume   126.99439452
_cell_formula_units_Z   2
loop_
 _symmetry_equiv_pos_site_id
 _symmetry_equiv_pos_as_xyz
  1  'x, y, z'
loop_
 _atom_site_type_symbol
 _atom_site_label
 _atom_site_symmetry_multiplicity
 _atom_site_fract_x
 _atom_site_fract_y
 _atom_site_fract_z
 _atom_site_occupancy
  Eu  Eu0  1  0.125000  0.125000  0.125000  1
  Eu  Eu1  1  0.874322  0.874647  0.873905  1
  Pd  Pd2  1  0.491166  -0.007847  0.498912  1
  Pd  Pd3  1  -0.005289  0.493694  0.497492  1
  Pd  Pd4  1  0.495271  0.491742  0.490602  1
  Pd  Pd5  1  0.499457  0.496636  -0.000361  1
