# generated using pymatgen
data_CeCu6
_symmetry_space_group_name_H-M   'P 1'
_cell_length_a   5.03442469
_cell_length_b   8.07205146
_cell_length_c   10.15417423
_cell_angle_alpha   91.63926849
_cell_angle_beta   90.65943580
_cell_angle_gamma   92.13286424
_symmetry_Int_Tables_number   1
_chemical_formula_structural   CeCu6
_chemical_formula_sum   'Ce4 Cu24'
_cell_volume   412.15941048
_cell_formula_units_Z   4
loop_
 _symmetry_equiv_pos_site_id
 _symmetry_equiv_pos_as_xyz
  1  'x, y, z'
loop_
 _atom_site_type_symbol
 _atom_site_label
 _atom_site_symmetry_multiplicity
 _atom_site_fract_x
 _atom_site_fract_y
 _atom_site_fract_z
 _atom_site_occupancy
  Ce  Ce0  1  0.256762  0.259325  0.435250  1
  Ce  Ce1  1  0.255814  0.754352  0.062293  1
  Ce  Ce2  1  0.739774  0.230904  0.928551  1
  Ce  Ce3  1  0.736844  0.736177  0.556658  1
  Cu  Cu4  1  0.247509  0.143957  0.137376  1
  Cu  Cu5  1  0.747242  0.352849  0.643077  1
  Cu  Cu6  1  0.764257  0.435759  0.398308  1
  Cu  Cu7  1  0.245578  0.312291  0.734142  1
  Cu  Cu8  1  0.493786  0.561733  0.800739  1
  Cu  Cu9  1  0.741029  0.097380  0.476305  1
  Cu  Cu10  1  0.241952  0.889928  0.511449  1
  Cu  Cu11  1  0.493734  0.926292  0.302661  1
  Cu  Cu12  1  0.501839  0.058779  0.687536  1
  Cu  Cu13  1  0.246133  0.396401  0.984059  1
  Cu  Cu14  1  0.989854  0.562068  0.808029  1
  Cu  Cu15  1  0.745622  0.851182  0.852282  1
  Cu  Cu16  1  0.763996  0.933888  0.085352  1
  Cu  Cu17  1  0.231654  0.055310  0.904239  1
  Cu  Cu18  1  0.238214  0.639756  0.354316  1
  Cu  Cu19  1  0.744431  0.593117  0.007015  1
  Cu  Cu20  1  0.745812  0.681840  0.250795  1
  Cu  Cu21  1  0.486762  0.431769  0.192978  1
  Cu  Cu22  1  0.000000  0.435394  0.188494  1
  Cu  Cu23  1  0.244541  0.808686  0.749423  1
  Cu  Cu24  1  0.232492  0.559472  0.586677  1
  Cu  Cu25  1  0.984463  0.055444  0.686580  1
  Cu  Cu26  1  0.002941  0.929095  0.302485  1
  Cu  Cu27  1  0.744701  0.180196  0.243558  1
