# generated using pymatgen
data_YbHg2
_symmetry_space_group_name_H-M   'P 1'
_cell_length_a   5.03913613
_cell_length_b   5.04486736
_cell_length_c   3.62348104
_cell_angle_alpha   90.38299722
_cell_angle_beta   91.55632913
_cell_angle_gamma   121.29072176
_symmetry_Int_Tables_number   1
_chemical_formula_structural   YbHg2
_chemical_formula_sum   'Yb1 Hg2'
_cell_volume   78.66414432
_cell_formula_units_Z   1
loop_
 _symmetry_equiv_pos_site_id
 _symmetry_equiv_pos_as_xyz
  1  'x, y, z'
loop_
 _atom_site_type_symbol
 _atom_site_label
 _atom_site_symmetry_multiplicity
 _atom_site_fract_x
 _atom_site_fract_y
 _atom_site_fract_z
 _atom_site_occupancy
  Yb  Yb0  1  0.000000  0.000000  0.000000  1
  Hg  Hg1  1  0.326477  0.657026  0.490373  1
  Hg  Hg2  1  0.665014  0.326080  0.498403  1
