# generated using pymatgen
data_GdRh5
_symmetry_space_group_name_H-M   'P 1'
_cell_length_a   5.31586449
_cell_length_b   5.34018703
_cell_length_c   4.33858459
_cell_angle_alpha   90.66678001
_cell_angle_beta   91.06928363
_cell_angle_gamma   121.88771206
_symmetry_Int_Tables_number   1
_chemical_formula_structural   GdRh5
_chemical_formula_sum   'Gd1 Rh5'
_cell_volume   104.52368478
_cell_formula_units_Z   1
loop_
 _symmetry_equiv_pos_site_id
 _symmetry_equiv_pos_as_xyz
  1  'x, y, z'
loop_
 _atom_site_type_symbol
 _atom_site_label
 _atom_site_symmetry_multiplicity
 _atom_site_fract_x
 _atom_site_fract_y
 _atom_site_fract_z
 _atom_site_occupancy
  Gd  Gd0  1  0.000000  0.000000  0.000000  1
  Rh  Rh1  1  0.498157  -0.003868  0.492897  1
  Rh  Rh2  1  -0.002471  0.496542  0.492865  1
  Rh  Rh3  1  0.666200  0.323683  -0.009430  1
  Rh  Rh4  1  0.495928  0.496406  0.497676  1
  Rh  Rh5  1  0.330411  0.659978  -0.004640  1
