# generated using pymatgen
data_CeCd
_symmetry_space_group_name_H-M   'P 1'
_cell_length_a   3.92743060
_cell_length_b   3.90951370
_cell_length_c   3.89462400
_cell_angle_alpha   91.27402547
_cell_angle_beta   90.20877319
_cell_angle_gamma   91.92378121
_symmetry_Int_Tables_number   1
_chemical_formula_structural   CeCd
_chemical_formula_sum   'Ce1 Cd1'
_cell_volume   59.75033940
_cell_formula_units_Z   1
loop_
 _symmetry_equiv_pos_site_id
 _symmetry_equiv_pos_as_xyz
  1  'x, y, z'
loop_
 _atom_site_type_symbol
 _atom_site_label
 _atom_site_symmetry_multiplicity
 _atom_site_fract_x
 _atom_site_fract_y
 _atom_site_fract_z
 _atom_site_occupancy
  Ce  Ce0  1  0.500000  0.500000  0.500000  1
  Cd  Cd1  1  -0.003848  -0.003527  -0.000775  1
