# generated using pymatgen
data_YbRh2
_symmetry_space_group_name_H-M   'P 1'
_cell_length_a   5.35414819
_cell_length_b   5.35379184
_cell_length_c   5.39534320
_cell_angle_alpha   61.60801982
_cell_angle_beta   61.87366204
_cell_angle_gamma   61.57309353
_symmetry_Int_Tables_number   1
_chemical_formula_structural   YbRh2
_chemical_formula_sum   'Yb2 Rh4'
_cell_volume   113.48840258
_cell_formula_units_Z   2
loop_
 _symmetry_equiv_pos_site_id
 _symmetry_equiv_pos_as_xyz
  1  'x, y, z'
loop_
 _atom_site_type_symbol
 _atom_site_label
 _atom_site_symmetry_multiplicity
 _atom_site_fract_x
 _atom_site_fract_y
 _atom_site_fract_z
 _atom_site_occupancy
  Yb  Yb0  1  0.875000  0.875000  0.875000  1
  Yb  Yb1  1  0.123261  0.124297  0.119014  1
  Rh  Rh2  1  0.495432  0.499791  0.494520  1
  Rh  Rh3  1  0.493977  0.499088  -0.000760  1
  Rh  Rh4  1  -0.007067  0.497500  0.493385  1
  Rh  Rh5  1  0.497812  -0.005134  0.496832  1
