# generated using pymatgen
data_GdNi2
_symmetry_space_group_name_H-M   'P 1'
_cell_length_a   5.13454623
_cell_length_b   5.18918189
_cell_length_c   5.14157589
_cell_angle_alpha   60.89592886
_cell_angle_beta   60.11088721
_cell_angle_gamma   60.43420380
_symmetry_Int_Tables_number   1
_chemical_formula_structural   GdNi2
_chemical_formula_sum   'Gd2 Ni4'
_cell_volume   97.91095643
_cell_formula_units_Z   2
loop_
 _symmetry_equiv_pos_site_id
 _symmetry_equiv_pos_as_xyz
  1  'x, y, z'
loop_
 _atom_site_type_symbol
 _atom_site_label
 _atom_site_symmetry_multiplicity
 _atom_site_fract_x
 _atom_site_fract_y
 _atom_site_fract_z
 _atom_site_occupancy
  Gd  Gd0  1  0.875000  0.875000  0.875000  1
  Gd  Gd1  1  0.122232  0.120582  0.120477  1
  Ni  Ni2  1  0.499725  0.494496  0.491980  1
  Ni  Ni3  1  0.493122  0.495520  -0.006459  1
  Ni  Ni4  1  -0.000313  0.499042  0.498215  1
  Ni  Ni5  1  0.490257  -0.004379  0.495760  1
