# generated using pymatgen
data_YbZn2
_symmetry_space_group_name_H-M   'P 1'
_cell_length_a   4.57304683
_cell_length_b   5.70367090
_cell_length_c   5.77679253
_cell_angle_alpha   80.47576895
_cell_angle_beta   66.98243650
_cell_angle_gamma   68.15481432
_symmetry_Int_Tables_number   1
_chemical_formula_structural   YbZn2
_chemical_formula_sum   'Yb2 Zn4'
_cell_volume   128.68735771
_cell_formula_units_Z   2
loop_
 _symmetry_equiv_pos_site_id
 _symmetry_equiv_pos_as_xyz
  1  'x, y, z'
loop_
 _atom_site_type_symbol
 _atom_site_label
 _atom_site_symmetry_multiplicity
 _atom_site_fract_x
 _atom_site_fract_y
 _atom_site_fract_z
 _atom_site_occupancy
  Yb  Yb0  1  0.549456  0.700544  0.200544  1
  Yb  Yb1  1  0.448205  0.298160  0.799032  1
  Zn  Zn2  1  0.835521  0.721207  0.603428  1
  Zn  Zn3  1  0.161602  0.266383  0.394597  1
  Zn  Zn4  1  0.828962  0.097986  0.220351  1
  Zn  Zn5  1  0.163784  0.893214  0.769965  1
