# generated using pymatgen
data_YbCu5
_symmetry_space_group_name_H-M   'P 1'
_cell_length_a   5.02831038
_cell_length_b   5.03714831
_cell_length_c   4.12775191
_cell_angle_alpha   90.35850124
_cell_angle_beta   91.32681933
_cell_angle_gamma   120.43491661
_symmetry_Int_Tables_number   1
_chemical_formula_structural   YbCu5
_chemical_formula_sum   'Yb1 Cu5'
_cell_volume   90.09900091
_cell_formula_units_Z   1
loop_
 _symmetry_equiv_pos_site_id
 _symmetry_equiv_pos_as_xyz
  1  'x, y, z'
loop_
 _atom_site_type_symbol
 _atom_site_label
 _atom_site_symmetry_multiplicity
 _atom_site_fract_x
 _atom_site_fract_y
 _atom_site_fract_z
 _atom_site_occupancy
  Yb  Yb0  1  0.000000  0.000000  0.000000  1
  Cu  Cu1  1  0.332810  0.666380  -0.002113  1
  Cu  Cu2  1  0.657620  0.328232  -0.001310  1
  Cu  Cu3  1  0.497910  -0.009780  0.494900  1
  Cu  Cu4  1  0.498137  0.494643  0.493146  1
  Cu  Cu5  1  -0.002236  0.494762  0.495493  1
