# generated using pymatgen
data_YbCu5
_symmetry_space_group_name_H-M   'P 1'
_cell_length_a   5.04288062
_cell_length_b   5.03934214
_cell_length_c   4.11731513
_cell_angle_alpha   91.48776137
_cell_angle_beta   90.24850707
_cell_angle_gamma   120.62841573
_symmetry_Int_Tables_number   1
_chemical_formula_structural   YbCu5
_chemical_formula_sum   'Yb1 Cu5'
_cell_volume   89.98605434
_cell_formula_units_Z   1
loop_
 _symmetry_equiv_pos_site_id
 _symmetry_equiv_pos_as_xyz
  1  'x, y, z'
loop_
 _atom_site_type_symbol
 _atom_site_label
 _atom_site_symmetry_multiplicity
 _atom_site_fract_x
 _atom_site_fract_y
 _atom_site_fract_z
 _atom_site_occupancy
  Yb  Yb0  1  0.000000  0.000000  0.000000  1
  Cu  Cu1  1  0.327231  0.664382  -0.000368  1
  Cu  Cu2  1  0.666288  0.327298  -0.001592  1
  Cu  Cu3  1  0.493318  -0.001016  0.496885  1
  Cu  Cu4  1  0.490911  0.499118  0.493108  1
  Cu  Cu5  1  -0.004854  0.495627  0.497253  1
