# generated using pymatgen
data_YbAg
_symmetry_space_group_name_H-M   'P 1'
_cell_length_a   4.70382510
_cell_length_b   6.04386519
_cell_length_c   7.52351995
_cell_angle_alpha   91.06510502
_cell_angle_beta   91.20587667
_cell_angle_gamma   91.58177186
_symmetry_Int_Tables_number   1
_chemical_formula_structural   YbAg
_chemical_formula_sum   'Yb4 Ag4'
_cell_volume   213.72011125
_cell_formula_units_Z   4
loop_
 _symmetry_equiv_pos_site_id
 _symmetry_equiv_pos_as_xyz
  1  'x, y, z'
loop_
 _atom_site_type_symbol
 _atom_site_label
 _atom_site_symmetry_multiplicity
 _atom_site_fract_x
 _atom_site_fract_y
 _atom_site_fract_z
 _atom_site_occupancy
  Yb  Yb0  1  0.750000  0.862221  0.818804  1
  Yb  Yb1  1  0.743784  0.635160  0.315819  1
  Yb  Yb2  1  0.244731  0.132795  0.173465  1
  Yb  Yb3  1  0.241456  0.357253  0.671674  1
  Ag  Ag4  1  0.247577  0.858821  0.535088  1
  Ag  Ag5  1  0.240118  0.631755  0.030405  1
  Ag  Ag6  1  0.742131  0.137062  0.460687  1
  Ag  Ag7  1  0.747353  0.356408  0.954930  1
