# generated using pymatgen
data_YbCu2
_symmetry_space_group_name_H-M   'P 1'
_cell_length_a   4.26576544
_cell_length_b   5.48765223
_cell_length_c   5.47001799
_cell_angle_alpha   77.99308321
_cell_angle_beta   67.62918524
_cell_angle_gamma   68.84223265
_symmetry_Int_Tables_number   1
_chemical_formula_structural   YbCu2
_chemical_formula_sum   'Yb2 Cu4'
_cell_volume   110.05764575
_cell_formula_units_Z   2
loop_
 _symmetry_equiv_pos_site_id
 _symmetry_equiv_pos_as_xyz
  1  'x, y, z'
loop_
 _atom_site_type_symbol
 _atom_site_label
 _atom_site_symmetry_multiplicity
 _atom_site_fract_x
 _atom_site_fract_y
 _atom_site_fract_z
 _atom_site_occupancy
  Yb  Yb0  1  0.543123  0.706877  0.206877  1
  Yb  Yb1  1  0.452916  0.292143  0.783926  1
  Cu  Cu2  1  0.160383  0.884209  0.779586  1
  Cu  Cu3  1  0.834291  0.103307  0.213872  1
  Cu  Cu4  1  0.828549  0.710880  0.599852  1
  Cu  Cu5  1  0.159707  0.277444  0.384265  1
