# generated using pymatgen
data_YbCu2
_symmetry_space_group_name_H-M   'P 1'
_cell_length_a   4.26699837
_cell_length_b   5.47459082
_cell_length_c   5.49657902
_cell_angle_alpha   79.29232984
_cell_angle_beta   68.74350103
_cell_angle_gamma   67.39135443
_symmetry_Int_Tables_number   1
_chemical_formula_structural   YbCu2
_chemical_formula_sum   'Yb2 Cu4'
_cell_volume   110.30804410
_cell_formula_units_Z   2
loop_
 _symmetry_equiv_pos_site_id
 _symmetry_equiv_pos_as_xyz
  1  'x, y, z'
loop_
 _atom_site_type_symbol
 _atom_site_label
 _atom_site_symmetry_multiplicity
 _atom_site_fract_x
 _atom_site_fract_y
 _atom_site_fract_z
 _atom_site_occupancy
  Yb  Yb0  1  0.543123  0.706877  0.206877  1
  Yb  Yb1  1  0.447284  0.288041  0.786114  1
  Cu  Cu2  1  0.162730  0.888114  0.780350  1
  Cu  Cu3  1  0.830907  0.099981  0.216780  1
  Cu  Cu4  1  0.828609  0.718018  0.604920  1
  Cu  Cu5  1  0.152853  0.275916  0.382754  1
