# generated using pymatgen
data_GdOs2
_symmetry_space_group_name_H-M   'P 1'
_cell_length_a   5.42130766
_cell_length_b   5.40199334
_cell_length_c   8.99910618
_cell_angle_alpha   91.13600952
_cell_angle_beta   91.79740501
_cell_angle_gamma   121.55963260
_symmetry_Int_Tables_number   1
_chemical_formula_structural   GdOs2
_chemical_formula_sum   'Gd4 Os8'
_cell_volume   224.25319638
_cell_formula_units_Z   4
loop_
 _symmetry_equiv_pos_site_id
 _symmetry_equiv_pos_as_xyz
  1  'x, y, z'
loop_
 _atom_site_type_symbol
 _atom_site_label
 _atom_site_symmetry_multiplicity
 _atom_site_fract_x
 _atom_site_fract_y
 _atom_site_fract_z
 _atom_site_occupancy
  Gd  Gd0  1  0.333333  0.666667  0.065379  1
  Gd  Gd1  1  0.659487  0.331774  0.555748  1
  Gd  Gd2  1  0.657968  0.329497  0.926375  1
  Gd  Gd3  1  0.324404  0.659616  0.431139  1
  Os  Os4  1  -0.002221  -0.002025  -0.004813  1
  Os  Os5  1  -0.001423  -0.008888  0.497395  1
  Os  Os6  1  0.822302  0.655073  0.240626  1
  Os  Os7  1  0.165023  0.821922  0.743164  1
  Os  Os8  1  0.657299  0.820929  0.740017  1
  Os  Os9  1  0.335396  0.165288  0.240717  1
  Os  Os10  1  0.822675  0.168995  0.242813  1
  Os  Os11  1  0.169195  0.341228  0.748997  1
