# generated using pymatgen
data_YbIr
_symmetry_space_group_name_H-M   'P 1'
_cell_length_a   3.39700576
_cell_length_b   3.42286454
_cell_length_c   3.38047505
_cell_angle_alpha   91.63762775
_cell_angle_beta   91.51891057
_cell_angle_gamma   90.31496321
_symmetry_Int_Tables_number   1
_chemical_formula_structural   YbIr
_chemical_formula_sum   'Yb1 Ir1'
_cell_volume   39.27581257
_cell_formula_units_Z   1
loop_
 _symmetry_equiv_pos_site_id
 _symmetry_equiv_pos_as_xyz
  1  'x, y, z'
loop_
 _atom_site_type_symbol
 _atom_site_label
 _atom_site_symmetry_multiplicity
 _atom_site_fract_x
 _atom_site_fract_y
 _atom_site_fract_z
 _atom_site_occupancy
  Yb  Yb0  1  0.000000  0.000000  0.000000  1
  Ir  Ir1  1  0.499077  0.490460  0.493610  1
