# generated using pymatgen
data_YbAu
_symmetry_space_group_name_H-M   'P 1'
_cell_length_a   3.58460815
_cell_length_b   3.66919768
_cell_length_c   3.62987764
_cell_angle_alpha   91.24545815
_cell_angle_beta   91.30585662
_cell_angle_gamma   91.16798059
_symmetry_Int_Tables_number   1
_chemical_formula_structural   YbAu
_chemical_formula_sum   'Yb1 Au1'
_cell_volume   47.70837098
_cell_formula_units_Z   1
loop_
 _symmetry_equiv_pos_site_id
 _symmetry_equiv_pos_as_xyz
  1  'x, y, z'
loop_
 _atom_site_type_symbol
 _atom_site_label
 _atom_site_symmetry_multiplicity
 _atom_site_fract_x
 _atom_site_fract_y
 _atom_site_fract_z
 _atom_site_occupancy
  Yb  Yb0  1  0.500000  0.500000  0.500000  1
  Au  Au1  1  -0.000731  -0.002434  -0.009077  1
