# generated using pymatgen
data_YbRu
_symmetry_space_group_name_H-M   'P 1'
_cell_length_a   3.35950195
_cell_length_b   3.41106046
_cell_length_c   3.36908808
_cell_angle_alpha   90.12063133
_cell_angle_beta   91.72383437
_cell_angle_gamma   91.08327598
_symmetry_Int_Tables_number   1
_chemical_formula_structural   YbRu
_chemical_formula_sum   'Yb1 Ru1'
_cell_volume   38.58343651
_cell_formula_units_Z   1
loop_
 _symmetry_equiv_pos_site_id
 _symmetry_equiv_pos_as_xyz
  1  'x, y, z'
loop_
 _atom_site_type_symbol
 _atom_site_label
 _atom_site_symmetry_multiplicity
 _atom_site_fract_x
 _atom_site_fract_y
 _atom_site_fract_z
 _atom_site_occupancy
  Yb  Yb0  1  0.500000  0.500000  0.500000  1
  Ru  Ru1  1  -0.008139  -0.004022  -0.000397  1
