# generated using pymatgen
data_EuRh2
_symmetry_space_group_name_H-M   'P 1'
_cell_length_a   5.40807754
_cell_length_b   5.43265201
_cell_length_c   5.46475746
_cell_angle_alpha   60.06158796
_cell_angle_beta   60.77711792
_cell_angle_gamma   61.50575608
_symmetry_Int_Tables_number   1
_chemical_formula_structural   EuRh2
_chemical_formula_sum   'Eu2 Rh4'
_cell_volume   115.49554811
_cell_formula_units_Z   2
loop_
 _symmetry_equiv_pos_site_id
 _symmetry_equiv_pos_as_xyz
  1  'x, y, z'
loop_
 _atom_site_type_symbol
 _atom_site_label
 _atom_site_symmetry_multiplicity
 _atom_site_fract_x
 _atom_site_fract_y
 _atom_site_fract_z
 _atom_site_occupancy
  Eu  Eu0  1  0.124982  0.124991  0.124969  1
  Eu  Eu1  1  0.866435  0.874359  0.872324  1
  Rh  Rh2  1  0.491082  0.490433  0.998469  1
  Rh  Rh3  1  0.492992  -0.005856  0.493311  1
  Rh  Rh4  1  0.497757  0.495485  0.491299  1
  Rh  Rh5  1  -0.005319  0.490420  0.494364  1
