# generated using pymatgen
data_YbNi2
_symmetry_space_group_name_H-M   'P 1'
_cell_length_a   4.97300849
_cell_length_b   4.97526952
_cell_length_c   5.02624979
_cell_angle_alpha   61.85988278
_cell_angle_beta   60.77052136
_cell_angle_gamma   61.32850789
_symmetry_Int_Tables_number   1
_chemical_formula_structural   YbNi2
_chemical_formula_sum   'Yb2 Ni4'
_cell_volume   90.52804193
_cell_formula_units_Z   2
loop_
 _symmetry_equiv_pos_site_id
 _symmetry_equiv_pos_as_xyz
  1  'x, y, z'
loop_
 _atom_site_type_symbol
 _atom_site_label
 _atom_site_symmetry_multiplicity
 _atom_site_fract_x
 _atom_site_fract_y
 _atom_site_fract_z
 _atom_site_occupancy
  Yb  Yb0  1  0.875000  0.875000  0.875000  1
  Yb  Yb1  1  0.119933  0.116745  0.124473  1
  Ni  Ni2  1  0.494754  0.491202  0.492805  1
  Ni  Ni3  1  0.495900  0.497741  -0.004265  1
  Ni  Ni4  1  -0.002367  0.490750  0.495405  1
  Ni  Ni5  1  0.496718  -0.004475  0.498917  1
